<?xml version='1.0' encoding='UTF-8'?>
<routes xmlns:xsi='http://www.w3.org/2001/XMLSchema-instance' xsi:noNamespaceSchemaLocation='http://sumo.dlr.de/xsd/routes_file.xsd'>
	<vType id='Car' emissionClass='HBEFA3/PC_G_EU4' accel='3.0' decel='6.0' length='5.0' minGap='2.5' maxSpeed='50.0'/>
	<vType id='Bus' emissionClass='HBEFA3/LDV_D_EU4' accel='2.0' decel='5.0' length='7.0' minGap='3.5' maxSpeed='40.0' color='red' guiShape='bus'/>
	<vType id='Truck' emissionClass='HBEFA3/HDV_D_EU4' accel='1.0' decel='5.0' length='7.0' minGap='3.5' maxSpeed='40.0' color='blue' guiShape='truck'/>
	<vType id='Motor_Bike' emissionClass='HBEFA3/PC_G_EU4' accel='2.0' decel='4.0' length='3.0' minGap='2.5' maxSpeed='50.0' color='165,105,189' guiShape='motorcycle'/>
	<vType id='electricCar' emissionClass='Zero' accel='3.0' decel='6.0' length='5.0' minGap='2.5' maxSpeed='50.0' color='green'>
		 <param key='has.battery.device' value='true'/> 
		 <param key='device.battery.capacity' value='2000'/> 
		 <param key='maximumPower' value='1000'/> 
		 <param key='frontSurfaceArea' value='5'/> 
		 <param key='airDragCoefficient' value='0.6'/> 
		 <param key='rotatingMass' value='100'/> 
		 <param key='radialDragCoefficient' value='0.5'/> 
		 <param key='rollDragCoefficient' value='0.01'/> 
		 <param key='constantPowerIntake' value='100'/> 
		 <param key='propulsionEfficiency' value='0.9'/> 
		 <param key='recuperationEfficiency' value='0.9'/> 
		 <param key='stoppingThreshold' value='0.1'/> 
		 <param key='device.battery.maximumChargeRate' value='150000'/> 
	</vType>
	<vehicle id ="1" depart ="9.48" type ="Car">
		 <route edges= "28549731#0 28549731#1 28549731#2 28549731#3 28549731#4 28549731#6 28549731#7 28549731#8 28549731#9 345230672#0 345230672#1"/>
	</vehicle>
	<vehicle id ="2" depart ="324.92" type ="Car">
		 <route edges= "-28549731#12 -28549731#11 -28549731#10 -28549731#9 -28549731#8 -28549731#7 -28549731#6 -28549731#4 -28549731#3 58207369#1 58207369#2"/>
	</vehicle>
	<vehicle id ="3" depart ="429.73" type ="Truck">
		 <route edges= "28549731#0 28549731#1 28549731#2 28549731#3 28549731#4 28549731#6 28549731#7 28549731#8 28549731#9 345230672#0 345230672#1"/>
	</vehicle>
	<vehicle id ="4" depart ="522.63" type ="Car">
		 <route edges= "-28549731#12 -28549731#11 -28549731#10 -28549731#9 -28549731#8 -28549731#7 -28549731#6 -28549731#4 -28549731#3 -28549731#2 -28549731#1 -28549731#0"/>
	</vehicle>
	<vehicle id ="5" depart ="528.95" type ="Bus">
		 <route edges= "28549731#0 28549731#1 28549731#2 28549731#3 28549731#4 28549731#6 28549731#7 28549731#8 28549731#9 28549731#10 28549731#11 28549731#12"/>
	</vehicle>
	<vehicle id ="6" depart ="534.25" type ="Car">
		 <route edges= "-28549731#12 -28549731#11 -28549731#10 -28549731#9 -28549731#8 -28549731#7 -28549731#6 -28549731#4 -28549731#3 58207369#1 58207369#2"/>
	</vehicle>
	<vehicle id ="7" depart ="572.91" type ="Car">
		 <route edges= "28549731#0 28549731#1 28549731#2 28549731#3 28549731#4 28549731#6 28549731#7 28549731#8 28549731#9 28549731#10 28549731#11 28549731#12"/>
	</vehicle>
	<vehicle id ="8" depart ="729.09" type ="Car">
		 <route edges= "-345230672#1 -345230672#0 -28549731#9 -28549731#8 -28549731#7 -28549731#6 -28549731#4 -28549731#3 -28549731#2 -28549731#1 -28549731#0"/>
	</vehicle>
	<vehicle id ="9" depart ="928.07" type ="Bus">
		 <route edges= "-58207369#2 -58207369#1 28549731#3 28549731#4 28549731#6 28549731#7 28549731#8 28549731#9 28549731#10 28549731#11 28549731#12"/>
	</vehicle>
	<vehicle id ="10" depart ="1179.57" type ="Car">
		 <route edges= "-28549731#12 -28549731#11 -28549731#10 -28549731#9 -28549731#8 -28549731#7 -28549731#6 -28549731#4 -28549731#3 -28549731#2 -28549731#1 -28549731#0"/>
	</vehicle>
	<vehicle id ="11" depart ="1646.49" type ="Car">
		 <route edges= "-28549731#12 -28549731#11 -28549731#10 -28549731#9 -28549731#8 -28549731#7 -28549731#6 -28549731#4 -28549731#3 58207369#1 58207369#2"/>
	</vehicle>
	<vehicle id ="12" depart ="1997.95" type ="Truck">
		 <route edges= "28549731#0 28549731#1 28549731#2 28549731#3 28549731#4 28549731#6 28549731#7 28549731#8 28549731#9 345230672#0 345230672#1"/>
	</vehicle>
	<vehicle id ="13" depart ="2184.06" type ="Truck">
		 <route edges= "-345230672#1 -345230672#0 -28549731#9 -28549731#8 -28549731#7 -28549731#6 -28549731#4 -28549731#3 58207369#1 58207369#2"/>
	</vehicle>
	<vehicle id ="14" depart ="2643.38" type ="Bus">
		 <route edges= "-58207369#2 -58207369#1 28549731#3 28549731#4 28549731#6 28549731#7 28549731#8 28549731#9 345230672#0 345230672#1"/>
	</vehicle>
	<vehicle id ="15" depart ="2670.4" type ="Truck">
		 <route edges= "-28549731#12 -28549731#11 -28549731#10 -28549731#9 -28549731#8 -28549731#7 -28549731#6 -28549731#4 -28549731#3 58207369#1 58207369#2"/>
	</vehicle>
	<vehicle id ="16" depart ="2722.52" type ="Truck">
		 <route edges= "-58207369#2 -58207369#1 28549731#3 28549731#4 28549731#6 28549731#7 28549731#8 28549731#9 28549731#10 28549731#11 28549731#12"/>
	</vehicle>
	<vehicle id ="17" depart ="2801.63" type ="Car">
		 <route edges= "-345230672#1 -345230672#0 -28549731#9 -28549731#8 -28549731#7 -28549731#6 -28549731#4 -28549731#3 58207369#1 58207369#2"/>
	</vehicle>
	<vehicle id ="18" depart ="3038.29" type ="Car">
		 <route edges= "28549731#0 28549731#1 28549731#2 28549731#3 28549731#4 28549731#6 28549731#7 28549731#8 28549731#9 28549731#10 28549731#11 28549731#12"/>
	</vehicle>
	<vehicle id ="19" depart ="3148.65" type ="Car">
		 <route edges= "28549731#0 28549731#1 28549731#2 28549731#3 28549731#4 28549731#6 28549731#7 28549731#8 28549731#9 345230672#0 345230672#1"/>
	</vehicle>
	<vehicle id ="20" depart ="3154.94" type ="Truck">
		 <route edges= "-58207369#2 -58207369#1 28549731#3 28549731#4 28549731#6 28549731#7 28549731#8 28549731#9 345230672#0 345230672#1"/>
	</vehicle>
	<vehicle id ="21" depart ="3250.06" type ="Truck">
		 <route edges= "-58207369#2 -58207369#1 28549731#3 28549731#4 28549731#6 28549731#7 28549731#8 28549731#9 345230672#0 345230672#1"/>
	</vehicle>
	<vehicle id ="22" depart ="3291.69" type ="Car">
		 <route edges= "-58207369#2 -58207369#1 28549731#3 28549731#4 28549731#6 28549731#7 28549731#8 28549731#9 28549731#10 28549731#11 28549731#12"/>
	</vehicle>
	<vehicle id ="23" depart ="3331.62" type ="Car">
		 <route edges= "-58207369#2 -58207369#1 28549731#3 28549731#4 28549731#6 28549731#7 28549731#8 28549731#9 345230672#0 345230672#1"/>
	</vehicle>
	<vehicle id ="24" depart ="3834.65" type ="Truck">
		 <route edges= "28549731#0 28549731#1 28549731#2 28549731#3 28549731#4 28549731#6 28549731#7 28549731#8 28549731#9 345230672#0 345230672#1"/>
	</vehicle>
	<vehicle id ="25" depart ="3851.74" type ="Car">
		 <route edges= "-58207369#2 -58207369#1 28549731#3 28549731#4 28549731#6 28549731#7 28549731#8 28549731#9 28549731#10 28549731#11 28549731#12"/>
	</vehicle>
	<vehicle id ="26" depart ="4099.85" type ="Car">
		 <route edges= "-58207369#2 -58207369#1 28549731#3 28549731#4 28549731#6 28549731#7 28549731#8 28549731#9 28549731#10 28549731#11 28549731#12"/>
	</vehicle>
	<vehicle id ="27" depart ="4648.34" type ="Car">
		 <route edges= "28549731#0 28549731#1 28549731#2 28549731#3 28549731#4 28549731#6 28549731#7 28549731#8 28549731#9 345230672#0 345230672#1"/>
	</vehicle>
	<vehicle id ="28" depart ="4722.36" type ="Car">
		 <route edges= "-345230672#1 -345230672#0 -28549731#9 -28549731#8 -28549731#7 -28549731#6 -28549731#4 -28549731#3 -28549731#2 -28549731#1 -28549731#0"/>
	</vehicle>
	<vehicle id ="29" depart ="4797.58" type ="Car">
		 <route edges= "-58207369#2 -58207369#1 28549731#3 28549731#4 28549731#6 28549731#7 28549731#8 28549731#9 345230672#0 345230672#1"/>
	</vehicle>
	<vehicle id ="30" depart ="5042.1" type ="Car">
		 <route edges= "28549731#0 28549731#1 28549731#2 28549731#3 28549731#4 28549731#6 28549731#7 28549731#8 28549731#9 28549731#10 28549731#11 28549731#12"/>
	</vehicle>
	<vehicle id ="31" depart ="5582.0" type ="Truck">
		 <route edges= "-28549731#12 -28549731#11 -28549731#10 -28549731#9 -28549731#8 -28549731#7 -28549731#6 -28549731#4 -28549731#3 -28549731#2 -28549731#1 -28549731#0"/>
	</vehicle>
	<vehicle id ="32" depart ="5585.27" type ="Car">
		 <route edges= "-28549731#12 -28549731#11 -28549731#10 -28549731#9 -28549731#8 -28549731#7 -28549731#6 -28549731#4 -28549731#3 -28549731#2 -28549731#1 -28549731#0"/>
	</vehicle>
	<vehicle id ="33" depart ="5715.69" type ="Car">
		 <route edges= "-345230672#1 -345230672#0 -28549731#9 -28549731#8 -28549731#7 -28549731#6 -28549731#4 -28549731#3 -28549731#2 -28549731#1 -28549731#0"/>
	</vehicle>
	<vehicle id ="34" depart ="6346.38" type ="Bus">
		 <route edges= "28549731#0 28549731#1 28549731#2 28549731#3 28549731#4 28549731#6 28549731#7 28549731#8 28549731#9 28549731#10 28549731#11 28549731#12"/>
	</vehicle>
	<vehicle id ="35" depart ="6499.76" type ="Car">
		 <route edges= "-345230672#1 -345230672#0 -28549731#9 -28549731#8 -28549731#7 -28549731#6 -28549731#4 -28549731#3 58207369#1 58207369#2"/>
	</vehicle>
	<vehicle id ="36" depart ="6592.89" type ="Bus">
		 <route edges= "-58207369#2 -58207369#1 28549731#3 28549731#4 28549731#6 28549731#7 28549731#8 28549731#9 345230672#0 345230672#1"/>
	</vehicle>
	<vehicle id ="37" depart ="6682.12" type ="Car">
		 <route edges= "-28549731#12 -28549731#11 -28549731#10 -28549731#9 -28549731#8 -28549731#7 -28549731#6 -28549731#4 -28549731#3 -28549731#2 -28549731#1 -28549731#0"/>
	</vehicle>
	<vehicle id ="38" depart ="6887.95" type ="Bus">
		 <route edges= "28549731#0 28549731#1 28549731#2 28549731#3 28549731#4 28549731#6 28549731#7 28549731#8 28549731#9 28549731#10 28549731#11 28549731#12"/>
	</vehicle>
	<vehicle id ="39" depart ="7034.8" type ="Car">
		 <route edges= "-28549731#12 -28549731#11 -28549731#10 -28549731#9 -28549731#8 -28549731#7 -28549731#6 -28549731#4 -28549731#3 -28549731#2 -28549731#1 -28549731#0"/>
	</vehicle>
	<vehicle id ="40" depart ="7088.58" type ="Bus">
		 <route edges= "28549731#0 28549731#1 28549731#2 28549731#3 28549731#4 28549731#6 28549731#7 28549731#8 28549731#9 345230672#0 345230672#1"/>
	</vehicle>
	<vehicle id ="41" depart ="7127.17" type ="Car">
		 <route edges= "28549731#0 28549731#1 28549731#2 28549731#3 28549731#4 28549731#6 28549731#7 28549731#8 28549731#9 28549731#10 28549731#11 28549731#12"/>
	</vehicle>
	<vehicle id ="42" depart ="7237.4" type ="Bus">
		 <route edges= "28549731#0 28549731#1 28549731#2 28549731#3 28549731#4 28549731#6 28549731#7 28549731#8 28549731#9 345230672#0 345230672#1"/>
	</vehicle>
	<vehicle id ="43" depart ="7576.33" type ="Bus">
		 <route edges= "-345230672#1 -345230672#0 -28549731#9 -28549731#8 -28549731#7 -28549731#6 -28549731#4 -28549731#3 -28549731#2 -28549731#1 -28549731#0"/>
	</vehicle>
	<vehicle id ="44" depart ="7692.93" type ="Car">
		 <route edges= "28549731#0 28549731#1 28549731#2 28549731#3 28549731#4 28549731#6 28549731#7 28549731#8 28549731#9 345230672#0 345230672#1"/>
	</vehicle>
	<vehicle id ="45" depart ="7734.3" type ="Car">
		 <route edges= "-345230672#1 -345230672#0 -28549731#9 -28549731#8 -28549731#7 -28549731#6 -28549731#4 -28549731#3 58207369#1 58207369#2"/>
	</vehicle>
	<vehicle id ="46" depart ="7752.71" type ="Truck">
		 <route edges= "28549731#0 28549731#1 28549731#2 28549731#3 28549731#4 28549731#6 28549731#7 28549731#8 28549731#9 345230672#0 345230672#1"/>
	</vehicle>
	<vehicle id ="47" depart ="8223.61" type ="Car">
		 <route edges= "28549731#0 28549731#1 28549731#2 28549731#3 28549731#4 28549731#6 28549731#7 28549731#8 28549731#9 345230672#0 345230672#1"/>
	</vehicle>
	<vehicle id ="48" depart ="8428.9" type ="Car">
		 <route edges= "-28549731#12 -28549731#11 -28549731#10 -28549731#9 -28549731#8 -28549731#7 -28549731#6 -28549731#4 -28549731#3 58207369#1 58207369#2"/>
	</vehicle>
	<vehicle id ="49" depart ="8745.69" type ="Truck">
		 <route edges= "28549731#0 28549731#1 28549731#2 28549731#3 28549731#4 28549731#6 28549731#7 28549731#8 28549731#9 345230672#0 345230672#1"/>
	</vehicle>
	<vehicle id ="50" depart ="8783.19" type ="Car">
		 <route edges= "-28549731#12 -28549731#11 -28549731#10 -28549731#9 -28549731#8 -28549731#7 -28549731#6 -28549731#4 -28549731#3 -28549731#2 -28549731#1 -28549731#0"/>
	</vehicle>
	<vehicle id ="51" depart ="9053.56" type ="Car">
		 <route edges= "-58207369#2 -58207369#1 28549731#3 28549731#4 28549731#6 28549731#7 28549731#8 28549731#9 28549731#10 28549731#11 28549731#12"/>
	</vehicle>
	<vehicle id ="52" depart ="9088.95" type ="Truck">
		 <route edges= "-345230672#1 -345230672#0 -28549731#9 -28549731#8 -28549731#7 -28549731#6 -28549731#4 -28549731#3 -28549731#2 -28549731#1 -28549731#0"/>
	</vehicle>
	<vehicle id ="53" depart ="9212.79" type ="Car">
		 <route edges= "28549731#0 28549731#1 28549731#2 28549731#3 28549731#4 28549731#6 28549731#7 28549731#8 28549731#9 28549731#10 28549731#11 28549731#12"/>
	</vehicle>
	<vehicle id ="54" depart ="9225.74" type ="Bus">
		 <route edges= "-28549731#12 -28549731#11 -28549731#10 -28549731#9 -28549731#8 -28549731#7 -28549731#6 -28549731#4 -28549731#3 -28549731#2 -28549731#1 -28549731#0"/>
	</vehicle>
	<vehicle id ="55" depart ="9344.89" type ="Car">
		 <route edges= "-58207369#2 -58207369#1 28549731#3 28549731#4 28549731#6 28549731#7 28549731#8 28549731#9 28549731#10 28549731#11 28549731#12"/>
	</vehicle>
	<vehicle id ="56" depart ="9351.77" type ="Car">
		 <route edges= "-345230672#1 -345230672#0 -28549731#9 -28549731#8 -28549731#7 -28549731#6 -28549731#4 -28549731#3 58207369#1 58207369#2"/>
	</vehicle>
	<vehicle id ="57" depart ="9355.42" type ="Truck">
		 <route edges= "-58207369#2 -58207369#1 28549731#3 28549731#4 28549731#6 28549731#7 28549731#8 28549731#9 28549731#10 28549731#11 28549731#12"/>
	</vehicle>
	<vehicle id ="58" depart ="9399.66" type ="Car">
		 <route edges= "-345230672#1 -345230672#0 -28549731#9 -28549731#8 -28549731#7 -28549731#6 -28549731#4 -28549731#3 58207369#1 58207369#2"/>
	</vehicle>
	<vehicle id ="59" depart ="9403.72" type ="Car">
		 <route edges= "-58207369#2 -58207369#1 28549731#3 28549731#4 28549731#6 28549731#7 28549731#8 28549731#9 345230672#0 345230672#1"/>
	</vehicle>
	<vehicle id ="60" depart ="9676.56" type ="Car">
		 <route edges= "-345230672#1 -345230672#0 -28549731#9 -28549731#8 -28549731#7 -28549731#6 -28549731#4 -28549731#3 58207369#1 58207369#2"/>
	</vehicle>
	<vehicle id ="61" depart ="9732.24" type ="Truck">
		 <route edges= "-58207369#2 -58207369#1 28549731#3 28549731#4 28549731#6 28549731#7 28549731#8 28549731#9 28549731#10 28549731#11 28549731#12"/>
	</vehicle>
	<vehicle id ="62" depart ="9768.58" type ="Car">
		 <route edges= "-345230672#1 -345230672#0 -28549731#9 -28549731#8 -28549731#7 -28549731#6 -28549731#4 -28549731#3 58207369#1 58207369#2"/>
	</vehicle>
	<vehicle id ="63" depart ="9772.02" type ="Truck">
		 <route edges= "28549731#0 28549731#1 28549731#2 28549731#3 28549731#4 28549731#6 28549731#7 28549731#8 28549731#9 345230672#0 345230672#1"/>
	</vehicle>
	<vehicle id ="64" depart ="9802.93" type ="Car">
		 <route edges= "-345230672#1 -345230672#0 -28549731#9 -28549731#8 -28549731#7 -28549731#6 -28549731#4 -28549731#3 58207369#1 58207369#2"/>
	</vehicle>
	<vehicle id ="65" depart ="9897.06" type ="Truck">
		 <route edges= "28549731#0 28549731#1 28549731#2 28549731#3 28549731#4 28549731#6 28549731#7 28549731#8 28549731#9 345230672#0 345230672#1"/>
	</vehicle>
	<vehicle id ="66" depart ="10058.81" type ="Bus">
		 <route edges= "28549731#0 28549731#1 28549731#2 28549731#3 28549731#4 28549731#6 28549731#7 28549731#8 28549731#9 345230672#0 345230672#1"/>
	</vehicle>
	<vehicle id ="67" depart ="10122.98" type ="Car">
		 <route edges= "-345230672#1 -345230672#0 -28549731#9 -28549731#8 -28549731#7 -28549731#6 -28549731#4 -28549731#3 58207369#1 58207369#2"/>
	</vehicle>
	<vehicle id ="68" depart ="10167.03" type ="Car">
		 <route edges= "28549731#0 28549731#1 28549731#2 28549731#3 28549731#4 28549731#6 28549731#7 28549731#8 28549731#9 345230672#0 345230672#1"/>
	</vehicle>
	<vehicle id ="69" depart ="10240.13" type ="Bus">
		 <route edges= "-345230672#1 -345230672#0 -28549731#9 -28549731#8 -28549731#7 -28549731#6 -28549731#4 -28549731#3 58207369#1 58207369#2"/>
	</vehicle>
	<vehicle id ="70" depart ="10282.27" type ="Car">
		 <route edges= "-58207369#2 -58207369#1 28549731#3 28549731#4 28549731#6 28549731#7 28549731#8 28549731#9 345230672#0 345230672#1"/>
	</vehicle>
	<vehicle id ="71" depart ="10362.35" type ="Car">
		 <route edges= "-345230672#1 -345230672#0 -28549731#9 -28549731#8 -28549731#7 -28549731#6 -28549731#4 -28549731#3 -28549731#2 -28549731#1 -28549731#0"/>
	</vehicle>
	<vehicle id ="72" depart ="10471.01" type ="Truck">
		 <route edges= "-58207369#2 -58207369#1 28549731#3 28549731#4 28549731#6 28549731#7 28549731#8 28549731#9 345230672#0 345230672#1"/>
	</vehicle>
	<vehicle id ="73" depart ="10484.94" type ="Bus">
		 <route edges= "-345230672#1 -345230672#0 -28549731#9 -28549731#8 -28549731#7 -28549731#6 -28549731#4 -28549731#3 -28549731#2 -28549731#1 -28549731#0"/>
	</vehicle>
	<vehicle id ="74" depart ="10507.21" type ="Car">
		 <route edges= "28549731#0 28549731#1 28549731#2 28549731#3 28549731#4 28549731#6 28549731#7 28549731#8 28549731#9 345230672#0 345230672#1"/>
	</vehicle>
	<vehicle id ="75" depart ="10515.47" type ="Bus">
		 <route edges= "-28549731#12 -28549731#11 -28549731#10 -28549731#9 -28549731#8 -28549731#7 -28549731#6 -28549731#4 -28549731#3 -28549731#2 -28549731#1 -28549731#0"/>
	</vehicle>
	<vehicle id ="76" depart ="10552.2" type ="Bus">
		 <route edges= "-58207369#2 -58207369#1 28549731#3 28549731#4 28549731#6 28549731#7 28549731#8 28549731#9 28549731#10 28549731#11 28549731#12"/>
	</vehicle>
	<vehicle id ="77" depart ="10567.89" type ="Car">
		 <route edges= "-28549731#12 -28549731#11 -28549731#10 -28549731#9 -28549731#8 -28549731#7 -28549731#6 -28549731#4 -28549731#3 58207369#1 58207369#2"/>
	</vehicle>
	<vehicle id ="78" depart ="10631.6" type ="Car">
		 <route edges= "-58207369#2 -58207369#1 28549731#3 28549731#4 28549731#6 28549731#7 28549731#8 28549731#9 28549731#10 28549731#11 28549731#12"/>
	</vehicle>
	<vehicle id ="79" depart ="10633.86" type ="Bus">
		 <route edges= "-345230672#1 -345230672#0 -28549731#9 -28549731#8 -28549731#7 -28549731#6 -28549731#4 -28549731#3 58207369#1 58207369#2"/>
	</vehicle>
	<vehicle id ="80" depart ="10665.57" type ="Car">
		 <route edges= "-28549731#12 -28549731#11 -28549731#10 -28549731#9 -28549731#8 -28549731#7 -28549731#6 -28549731#4 -28549731#3 58207369#1 58207369#2"/>
	</vehicle>
	<vehicle id ="81" depart ="10716.19" type ="Car">
		 <route edges= "-345230672#1 -345230672#0 -28549731#9 -28549731#8 -28549731#7 -28549731#6 -28549731#4 -28549731#3 58207369#1 58207369#2"/>
	</vehicle>
	<vehicle id ="82" depart ="10839.67" type ="Truck">
		 <route edges= "-58207369#2 -58207369#1 28549731#3 28549731#4 28549731#6 28549731#7 28549731#8 28549731#9 28549731#10 28549731#11 28549731#12"/>
	</vehicle>
	<vehicle id ="83" depart ="10924.08" type ="Car">
		 <route edges= "-28549731#12 -28549731#11 -28549731#10 -28549731#9 -28549731#8 -28549731#7 -28549731#6 -28549731#4 -28549731#3 -28549731#2 -28549731#1 -28549731#0"/>
	</vehicle>
	<vehicle id ="84" depart ="10993.82" type ="Car">
		 <route edges= "28549731#0 28549731#1 28549731#2 28549731#3 28549731#4 28549731#6 28549731#7 28549731#8 28549731#9 345230672#0 345230672#1"/>
	</vehicle>
	<vehicle id ="85" depart ="11129.18" type ="Car">
		 <route edges= "-345230672#1 -345230672#0 -28549731#9 -28549731#8 -28549731#7 -28549731#6 -28549731#4 -28549731#3 -28549731#2 -28549731#1 -28549731#0"/>
	</vehicle>
	<vehicle id ="86" depart ="11153.78" type ="Car">
		 <route edges= "-58207369#2 -58207369#1 28549731#3 28549731#4 28549731#6 28549731#7 28549731#8 28549731#9 345230672#0 345230672#1"/>
	</vehicle>
	<vehicle id ="87" depart ="11162.07" type ="Car">
		 <route edges= "-345230672#1 -345230672#0 -28549731#9 -28549731#8 -28549731#7 -28549731#6 -28549731#4 -28549731#3 -28549731#2 -28549731#1 -28549731#0"/>
	</vehicle>
	<vehicle id ="88" depart ="11171.35" type ="Car">
		 <route edges= "28549731#0 28549731#1 28549731#2 28549731#3 28549731#4 28549731#6 28549731#7 28549731#8 28549731#9 345230672#0 345230672#1"/>
	</vehicle>
	<vehicle id ="89" depart ="11287.35" type ="Car">
		 <route edges= "-345230672#1 -345230672#0 -28549731#9 -28549731#8 -28549731#7 -28549731#6 -28549731#4 -28549731#3 -28549731#2 -28549731#1 -28549731#0"/>
	</vehicle>
	<vehicle id ="90" depart ="11321.2" type ="Truck">
		 <route edges= "-58207369#2 -58207369#1 28549731#3 28549731#4 28549731#6 28549731#7 28549731#8 28549731#9 345230672#0 345230672#1"/>
	</vehicle>
	<vehicle id ="91" depart ="11456.19" type ="Truck">
		 <route edges= "-28549731#12 -28549731#11 -28549731#10 -28549731#9 -28549731#8 -28549731#7 -28549731#6 -28549731#4 -28549731#3 58207369#1 58207369#2"/>
	</vehicle>
	<vehicle id ="92" depart ="11474.79" type ="Car">
		 <route edges= "-58207369#2 -58207369#1 28549731#3 28549731#4 28549731#6 28549731#7 28549731#8 28549731#9 28549731#10 28549731#11 28549731#12"/>
	</vehicle>
	<vehicle id ="93" depart ="11494.37" type ="Bus">
		 <route edges= "-345230672#1 -345230672#0 -28549731#9 -28549731#8 -28549731#7 -28549731#6 -28549731#4 -28549731#3 58207369#1 58207369#2"/>
	</vehicle>
	<vehicle id ="94" depart ="11528.38" type ="Truck">
		 <route edges= "28549731#0 28549731#1 28549731#2 28549731#3 28549731#4 28549731#6 28549731#7 28549731#8 28549731#9 345230672#0 345230672#1"/>
	</vehicle>
	<vehicle id ="95" depart ="11539.68" type ="Car">
		 <route edges= "-28549731#12 -28549731#11 -28549731#10 -28549731#9 -28549731#8 -28549731#7 -28549731#6 -28549731#4 -28549731#3 58207369#1 58207369#2"/>
	</vehicle>
	<vehicle id ="96" depart ="11561.18" type ="Car">
		 <route edges= "28549731#0 28549731#1 28549731#2 28549731#3 28549731#4 28549731#6 28549731#7 28549731#8 28549731#9 345230672#0 345230672#1"/>
	</vehicle>
	<vehicle id ="97" depart ="11719.56" type ="Truck">
		 <route edges= "-58207369#2 -58207369#1 28549731#3 28549731#4 28549731#6 28549731#7 28549731#8 28549731#9 345230672#0 345230672#1"/>
	</vehicle>
	<vehicle id ="98" depart ="11814.63" type ="Car">
		 <route edges= "-28549731#12 -28549731#11 -28549731#10 -28549731#9 -28549731#8 -28549731#7 -28549731#6 -28549731#4 -28549731#3 58207369#1 58207369#2"/>
	</vehicle>
	<vehicle id ="99" depart ="11871.15" type ="Car">
		 <route edges= "28549731#0 28549731#1 28549731#2 28549731#3 28549731#4 28549731#6 28549731#7 28549731#8 28549731#9 28549731#10 28549731#11 28549731#12"/>
	</vehicle>
	<vehicle id ="100" depart ="11911.86" type ="Car">
		 <route edges= "-345230672#1 -345230672#0 -28549731#9 -28549731#8 -28549731#7 -28549731#6 -28549731#4 -28549731#3 -28549731#2 -28549731#1 -28549731#0"/>
	</vehicle>
	<vehicle id ="101" depart ="11997.27" type ="Car">
		 <route edges= "-58207369#2 -58207369#1 28549731#3 28549731#4 28549731#6 28549731#7 28549731#8 28549731#9 28549731#10 28549731#11 28549731#12"/>
	</vehicle>
	<vehicle id ="102" depart ="12042.52" type ="Truck">
		 <route edges= "-28549731#12 -28549731#11 -28549731#10 -28549731#9 -28549731#8 -28549731#7 -28549731#6 -28549731#4 -28549731#3 58207369#1 58207369#2"/>
	</vehicle>
	<vehicle id ="103" depart ="12086.39" type ="Car">
		 <route edges= "28549731#0 28549731#1 28549731#2 28549731#3 28549731#4 28549731#6 28549731#7 28549731#8 28549731#9 28549731#10 28549731#11 28549731#12"/>
	</vehicle>
	<vehicle id ="104" depart ="12093.54" type ="Bus">
		 <route edges= "-345230672#1 -345230672#0 -28549731#9 -28549731#8 -28549731#7 -28549731#6 -28549731#4 -28549731#3 -28549731#2 -28549731#1 -28549731#0"/>
	</vehicle>
	<vehicle id ="105" depart ="12235.27" type ="Car">
		 <route edges= "-58207369#2 -58207369#1 28549731#3 28549731#4 28549731#6 28549731#7 28549731#8 28549731#9 28549731#10 28549731#11 28549731#12"/>
	</vehicle>
	<vehicle id ="106" depart ="12270.73" type ="Car">
		 <route edges= "28549731#0 28549731#1 28549731#2 28549731#3 28549731#4 28549731#6 28549731#7 28549731#8 28549731#9 345230672#0 345230672#1"/>
	</vehicle>
	<vehicle id ="107" depart ="12288.87" type ="Car">
		 <route edges= "28549731#0 28549731#1 28549731#2 28549731#3 28549731#4 28549731#6 28549731#7 28549731#8 28549731#9 345230672#0 345230672#1"/>
	</vehicle>
	<vehicle id ="108" depart ="12465.5" type ="Car">
		 <route edges= "28549731#0 28549731#1 28549731#2 28549731#3 28549731#4 28549731#6 28549731#7 28549731#8 28549731#9 345230672#0 345230672#1"/>
	</vehicle>
	<vehicle id ="109" depart ="12470.91" type ="Car">
		 <route edges= "-58207369#2 -58207369#1 28549731#3 28549731#4 28549731#6 28549731#7 28549731#8 28549731#9 345230672#0 345230672#1"/>
	</vehicle>
	<vehicle id ="110" depart ="12477.91" type ="Car">
		 <route edges= "-58207369#2 -58207369#1 28549731#3 28549731#4 28549731#6 28549731#7 28549731#8 28549731#9 28549731#10 28549731#11 28549731#12"/>
	</vehicle>
	<vehicle id ="111" depart ="12512.27" type ="Car">
		 <route edges= "-58207369#2 -58207369#1 28549731#3 28549731#4 28549731#6 28549731#7 28549731#8 28549731#9 345230672#0 345230672#1"/>
	</vehicle>
	<vehicle id ="112" depart ="12557.1" type ="Car">
		 <route edges= "28549731#0 28549731#1 28549731#2 28549731#3 28549731#4 28549731#6 28549731#7 28549731#8 28549731#9 345230672#0 345230672#1"/>
	</vehicle>
	<vehicle id ="113" depart ="12586.28" type ="Car">
		 <route edges= "28549731#0 28549731#1 28549731#2 28549731#3 28549731#4 28549731#6 28549731#7 28549731#8 28549731#9 28549731#10 28549731#11 28549731#12"/>
	</vehicle>
	<vehicle id ="114" depart ="12710.76" type ="Truck">
		 <route edges= "-58207369#2 -58207369#1 28549731#3 28549731#4 28549731#6 28549731#7 28549731#8 28549731#9 28549731#10 28549731#11 28549731#12"/>
	</vehicle>
	<vehicle id ="115" depart ="12726.65" type ="Car">
		 <route edges= "-28549731#12 -28549731#11 -28549731#10 -28549731#9 -28549731#8 -28549731#7 -28549731#6 -28549731#4 -28549731#3 58207369#1 58207369#2"/>
	</vehicle>
	<vehicle id ="116" depart ="12767.56" type ="Car">
		 <route edges= "28549731#0 28549731#1 28549731#2 28549731#3 28549731#4 28549731#6 28549731#7 28549731#8 28549731#9 28549731#10 28549731#11 28549731#12"/>
	</vehicle>
	<vehicle id ="117" depart ="12812.74" type ="Bus">
		 <route edges= "-28549731#12 -28549731#11 -28549731#10 -28549731#9 -28549731#8 -28549731#7 -28549731#6 -28549731#4 -28549731#3 -28549731#2 -28549731#1 -28549731#0"/>
	</vehicle>
	<vehicle id ="118" depart ="12826.43" type ="Car">
		 <route edges= "28549731#0 28549731#1 28549731#2 28549731#3 28549731#4 28549731#6 28549731#7 28549731#8 28549731#9 28549731#10 28549731#11 28549731#12"/>
	</vehicle>
	<vehicle id ="119" depart ="12828.33" type ="Bus">
		 <route edges= "-28549731#12 -28549731#11 -28549731#10 -28549731#9 -28549731#8 -28549731#7 -28549731#6 -28549731#4 -28549731#3 58207369#1 58207369#2"/>
	</vehicle>
	<vehicle id ="120" depart ="12844.58" type ="Truck">
		 <route edges= "28549731#0 28549731#1 28549731#2 28549731#3 28549731#4 28549731#6 28549731#7 28549731#8 28549731#9 28549731#10 28549731#11 28549731#12"/>
	</vehicle>
	<vehicle id ="121" depart ="12989.22" type ="Truck">
		 <route edges= "-345230672#1 -345230672#0 -28549731#9 -28549731#8 -28549731#7 -28549731#6 -28549731#4 -28549731#3 58207369#1 58207369#2"/>
	</vehicle>
	<vehicle id ="122" depart ="13098.6" type ="Truck">
		 <route edges= "-28549731#12 -28549731#11 -28549731#10 -28549731#9 -28549731#8 -28549731#7 -28549731#6 -28549731#4 -28549731#3 -28549731#2 -28549731#1 -28549731#0"/>
	</vehicle>
	<vehicle id ="123" depart ="13359.08" type ="Car">
		 <route edges= "-28549731#12 -28549731#11 -28549731#10 -28549731#9 -28549731#8 -28549731#7 -28549731#6 -28549731#4 -28549731#3 -28549731#2 -28549731#1 -28549731#0"/>
	</vehicle>
	<vehicle id ="124" depart ="13362.17" type ="Bus">
		 <route edges= "-28549731#12 -28549731#11 -28549731#10 -28549731#9 -28549731#8 -28549731#7 -28549731#6 -28549731#4 -28549731#3 -28549731#2 -28549731#1 -28549731#0"/>
	</vehicle>
	<vehicle id ="125" depart ="13482.07" type ="Car">
		 <route edges= "-28549731#12 -28549731#11 -28549731#10 -28549731#9 -28549731#8 -28549731#7 -28549731#6 -28549731#4 -28549731#3 58207369#1 58207369#2"/>
	</vehicle>
	<vehicle id ="126" depart ="13516.96" type ="Car">
		 <route edges= "-58207369#2 -58207369#1 28549731#3 28549731#4 28549731#6 28549731#7 28549731#8 28549731#9 28549731#10 28549731#11 28549731#12"/>
	</vehicle>
	<vehicle id ="127" depart ="13532.63" type ="Car">
		 <route edges= "-28549731#12 -28549731#11 -28549731#10 -28549731#9 -28549731#8 -28549731#7 -28549731#6 -28549731#4 -28549731#3 58207369#1 58207369#2"/>
	</vehicle>
	<vehicle id ="128" depart ="13599.8" type ="Bus">
		 <route edges= "28549731#0 28549731#1 28549731#2 28549731#3 28549731#4 28549731#6 28549731#7 28549731#8 28549731#9 28549731#10 28549731#11 28549731#12"/>
	</vehicle>
	<vehicle id ="129" depart ="13639.45" type ="Car">
		 <route edges= "-345230672#1 -345230672#0 -28549731#9 -28549731#8 -28549731#7 -28549731#6 -28549731#4 -28549731#3 -28549731#2 -28549731#1 -28549731#0"/>
	</vehicle>
	<vehicle id ="130" depart ="13900.99" type ="Car">
		 <route edges= "-58207369#2 -58207369#1 28549731#3 28549731#4 28549731#6 28549731#7 28549731#8 28549731#9 28549731#10 28549731#11 28549731#12"/>
	</vehicle>
	<vehicle id ="131" depart ="14038.92" type ="Truck">
		 <route edges= "-28549731#12 -28549731#11 -28549731#10 -28549731#9 -28549731#8 -28549731#7 -28549731#6 -28549731#4 -28549731#3 -28549731#2 -28549731#1 -28549731#0"/>
	</vehicle>
	<vehicle id ="132" depart ="14039.68" type ="Car">
		 <route edges= "-58207369#2 -58207369#1 28549731#3 28549731#4 28549731#6 28549731#7 28549731#8 28549731#9 28549731#10 28549731#11 28549731#12"/>