<?xml version='1.0' encoding='UTF-8'?>
<routes xmlns:xsi='http://www.w3.org/2001/XMLSchema-instance' xsi:noNamespaceSchemaLocation='http://sumo.dlr.de/xsd/routes_file.xsd'>
	<vType id='Car' emissionClass='HBEFA3/PC_G_EU4' accel='3.0' decel='6.0' length='5.0' minGap='2.5' maxSpeed='50.0'/>
	<vType id='Bus' emissionClass='HBEFA3/LDV_D_EU4' accel='2.0' decel='5.0' length='7.0' minGap='3.5' maxSpeed='40.0' color='red' guiShape='bus'/>
	<vType id='Truck' emissionClass='HBEFA3/HDV_D_EU4' accel='1.0' decel='5.0' length='7.0' minGap='3.5' maxSpeed='40.0' color='blue' guiShape='truck'/>
	<vType id='Motor_Bike' emissionClass='HBEFA3/PC_G_EU4' accel='2.0' decel='4.0' length='3.0' minGap='2.5' maxSpeed='50.0' color='165,105,189' guiShape='motorcycle'/>
	<vType id='electricCar' emissionClass='Zero' accel='3.0' decel='6.0' length='5.0' minGap='2.5' maxSpeed='50.0' color='green'>
		 <param key='has.battery.device' value='true'/> 
		 <param key='device.battery.capacity' value='2000'/> 
		 <param key='maximumPower' value='1000'/> 
		 <param key='frontSurfaceArea' value='5'/> 
		 <param key='airDragCoefficient' value='0.6'/> 
		 <param key='rotatingMass' value='100'/> 
		 <param key='radialDragCoefficient' value='0.5'/> 
		 <param key='rollDragCoefficient' value='0.01'/> 
		 <param key='constantPowerIntake' value='100'/> 
		 <param key='propulsionEfficiency' value='0.9'/> 
		 <param key='recuperationEfficiency' value='0.9'/> 
		 <param key='stoppingThreshold' value='0.1'/> 
		 <param key='device.battery.maximumChargeRate' value='150000'/> 
	</vType>
	<vehicle id ="1" depart ="25.31" type ="Car">
		 <route edges= "-58207369#2 -58207369#1 28549731#3 28549731#4 28549731#6 28549731#7 28549731#8 28549731#9 28549731#10 28549731#11 28549731#12"/>
	</vehicle>
	<vehicle id ="2" depart ="78.08" type ="Car">
		 <route edges= "-345230672#1 -345230672#0 -28549731#9 -28549731#8 -28549731#7 -28549731#6 -28549731#4 -28549731#3 58207369#1 58207369#2"/>
	</vehicle>
	<vehicle id ="3" depart ="156.51" type ="Car">
		 <route edges= "-58207369#2 -58207369#1 28549731#3 28549731#4 28549731#6 28549731#7 28549731#8 28549731#9 28549731#10 28549731#11 28549731#12"/>
	</vehicle>
	<vehicle id ="4" depart ="158.43" type ="Car">
		 <route edges= "-345230672#1 -345230672#0 -28549731#9 -28549731#8 -28549731#7 -28549731#6 -28549731#4 -28549731#3 -28549731#2 -28549731#1 -28549731#0"/>
	</vehicle>
	<vehicle id ="5" depart ="214.1" type ="Car">
		 <route edges= "-58207369#2 -58207369#1 28549731#3 28549731#4 28549731#6 28549731#7 28549731#8 28549731#9 28549731#10 28549731#11 28549731#12"/>
	</vehicle>
	<vehicle id ="6" depart ="231.46" type ="Car">
		 <route edges= "-345230672#1 -345230672#0 -28549731#9 -28549731#8 -28549731#7 -28549731#6 -28549731#4 -28549731#3 58207369#1 58207369#2"/>
	</vehicle>
	<vehicle id ="7" depart ="266.41" type ="Car">
		 <route edges= "28549731#0 28549731#1 28549731#2 28549731#3 28549731#4 28549731#6 28549731#7 28549731#8 28549731#9 28549731#10 28549731#11 28549731#12"/>
	</vehicle>
	<vehicle id ="8" depart ="303.14" type ="Car">
		 <route edges= "-28549731#12 -28549731#11 -28549731#10 -28549731#9 -28549731#8 -28549731#7 -28549731#6 -28549731#4 -28549731#3 -28549731#2 -28549731#1 -28549731#0"/>
	</vehicle>
	<vehicle id ="9" depart ="316.27" type ="Car">
		 <route edges= "28549731#0 28549731#1 28549731#2 28549731#3 28549731#4 28549731#6 28549731#7 28549731#8 28549731#9 345230672#0 345230672#1"/>
	</vehicle>
	<vehicle id ="10" depart ="317.05" type ="Truck">
		 <route edges= "-345230672#1 -345230672#0 -28549731#9 -28549731#8 -28549731#7 -28549731#6 -28549731#4 -28549731#3 58207369#1 58207369#2"/>
	</vehicle>
	<vehicle id ="11" depart ="421.62" type ="Car">
		 <route edges= "28549731#0 28549731#1 28549731#2 28549731#3 28549731#4 28549731#6 28549731#7 28549731#8 28549731#9 28549731#10 28549731#11 28549731#12"/>
	</vehicle>
	<vehicle id ="12" depart ="456.28" type ="Car">
		 <route edges= "-28549731#12 -28549731#11 -28549731#10 -28549731#9 -28549731#8 -28549731#7 -28549731#6 -28549731#4 -28549731#3 58207369#1 58207369#2"/>
	</vehicle>
	<vehicle id ="13" depart ="464.36" type ="Truck">
		 <route edges= "-28549731#12 -28549731#11 -28549731#10 -28549731#9 -28549731#8 -28549731#7 -28549731#6 -28549731#4 -28549731#3 58207369#1 58207369#2"/>
	</vehicle>
	<vehicle id ="14" depart ="494.18" type ="Car">
		 <route edges= "-345230672#1 -345230672#0 -28549731#9 -28549731#8 -28549731#7 -28549731#6 -28549731#4 -28549731#3 -28549731#2 -28549731#1 -28549731#0"/>
	</vehicle>
	<vehicle id ="15" depart ="568.86" type ="Car">
		 <route edges= "-28549731#12 -28549731#11 -28549731#10 -28549731#9 -28549731#8 -28549731#7 -28549731#6 -28549731#4 -28549731#3 58207369#1 58207369#2"/>
	</vehicle>
	<vehicle id ="16" depart ="721.16" type ="Car">
		 <route edges= "-28549731#12 -28549731#11 -28549731#10 -28549731#9 -28549731#8 -28549731#7 -28549731#6 -28549731#4 -28549731#3 58207369#1 58207369#2"/>
	</vehicle>
	<vehicle id ="17" depart ="746.43" type ="Car">
		 <route edges= "-28549731#12 -28549731#11 -28549731#10 -28549731#9 -28549731#8 -28549731#7 -28549731#6 -28549731#4 -28549731#3 -28549731#2 -28549731#1 -28549731#0"/>
	</vehicle>
	<vehicle id ="18" depart ="878.65" type ="Car">
		 <route edges= "-28549731#12 -28549731#11 -28549731#10 -28549731#9 -28549731#8 -28549731#7 -28549731#6 -28549731#4 -28549731#3 58207369#1 58207369#2"/>
	</vehicle>
	<vehicle id ="19" depart ="909.97" type ="Car">
		 <route edges= "28549731#0 28549731#1 28549731#2 28549731#3 28549731#4 28549731#6 28549731#7 28549731#8 28549731#9 345230672#0 345230672#1"/>
	</vehicle>
	<vehicle id ="20" depart ="912.68" type ="Car">
		 <route edges= "-28549731#12 -28549731#11 -28549731#10 -28549731#9 -28549731#8 -28549731#7 -28549731#6 -28549731#4 -28549731#3 58207369#1 58207369#2"/>
	</vehicle>
	<vehicle id ="21" depart ="1005.54" type ="Car">
		 <route edges= "-58207369#2 -58207369#1 28549731#3 28549731#4 28549731#6 28549731#7 28549731#8 28549731#9 28549731#10 28549731#11 28549731#12"/>
	</vehicle>
	<vehicle id ="22" depart ="1006.03" type ="Car">
		 <route edges= "-345230672#1 -345230672#0 -28549731#9 -28549731#8 -28549731#7 -28549731#6 -28549731#4 -28549731#3 58207369#1 58207369#2"/>
	</vehicle>
	<vehicle id ="23" depart ="1006.63" type ="Car">
		 <route edges= "28549731#0 28549731#1 28549731#2 28549731#3 28549731#4 28549731#6 28549731#7 28549731#8 28549731#9 345230672#0 345230672#1"/>
	</vehicle>
	<vehicle id ="24" depart ="1041.7" type ="Car">
		 <route edges= "-28549731#12 -28549731#11 -28549731#10 -28549731#9 -28549731#8 -28549731#7 -28549731#6 -28549731#4 -28549731#3 58207369#1 58207369#2"/>
	</vehicle>
	<vehicle id ="25" depart ="1095.12" type ="Car">
		 <route edges= "28549731#0 28549731#1 28549731#2 28549731#3 28549731#4 28549731#6 28549731#7 28549731#8 28549731#9 28549731#10 28549731#11 28549731#12"/>
	</vehicle>
	<vehicle id ="26" depart ="1123.34" type ="Car">
		 <route edges= "-345230672#1 -345230672#0 -28549731#9 -28549731#8 -28549731#7 -28549731#6 -28549731#4 -28549731#3 -28549731#2 -28549731#1 -28549731#0"/>
	</vehicle>
	<vehicle id ="27" depart ="1179.04" type ="Car">
		 <route edges= "-58207369#2 -58207369#1 28549731#3 28549731#4 28549731#6 28549731#7 28549731#8 28549731#9 28549731#10 28549731#11 28549731#12"/>
	</vehicle>
	<vehicle id ="28" depart ="1198.75" type ="Car">
		 <route edges= "-28549731#12 -28549731#11 -28549731#10 -28549731#9 -28549731#8 -28549731#7 -28549731#6 -28549731#4 -28549731#3 58207369#1 58207369#2"/>
	</vehicle>
	<vehicle id ="29" depart ="1207.89" type ="Car">
		 <route edges= "28549731#0 28549731#1 28549731#2 28549731#3 28549731#4 28549731#6 28549731#7 28549731#8 28549731#9 345230672#0 345230672#1"/>
	</vehicle>
	<vehicle id ="30" depart ="1284.51" type ="Car">
		 <route edges= "-345230672#1 -345230672#0 -28549731#9 -28549731#8 -28549731#7 -28549731#6 -28549731#4 -28549731#3 58207369#1 58207369#2"/>
	</vehicle>
	<vehicle id ="31" depart ="1451.59" type ="Truck">
		 <route edges= "-58207369#2 -58207369#1 28549731#3 28549731#4 28549731#6 28549731#7 28549731#8 28549731#9 28549731#10 28549731#11 28549731#12"/>
	</vehicle>
	<vehicle id ="32" depart ="1537.14" type ="Car">
		 <route edges= "-28549731#12 -28549731#11 -28549731#10 -28549731#9 -28549731#8 -28549731#7 -28549731#6 -28549731#4 -28549731#3 58207369#1 58207369#2"/>
	</vehicle>
	<vehicle id ="33" depart ="1544.45" type ="Car">
		 <route edges= "28549731#0 28549731#1 28549731#2 28549731#3 28549731#4 28549731#6 28549731#7 28549731#8 28549731#9 28549731#10 28549731#11 28549731#12"/>
	</vehicle>
	<vehicle id ="34" depart ="1579.8" type ="Car">
		 <route edges= "-28549731#12 -28549731#11 -28549731#10 -28549731#9 -28549731#8 -28549731#7 -28549731#6 -28549731#4 -28549731#3 -28549731#2 -28549731#1 -28549731#0"/>
	</vehicle>
	<vehicle id ="35" depart ="1626.9" type ="Car">
		 <route edges= "-58207369#2 -58207369#1 28549731#3 28549731#4 28549731#6 28549731#7 28549731#8 28549731#9 28549731#10 28549731#11 28549731#12"/>
	</vehicle>
	<vehicle id ="36" depart ="1687.46" type ="Car">
		 <route edges= "28549731#0 28549731#1 28549731#2 28549731#3 28549731#4 28549731#6 28549731#7 28549731#8 28549731#9 28549731#10 28549731#11 28549731#12"/>
	</vehicle>
	<vehicle id ="37" depart ="1698.25" type ="Car">
		 <route edges= "-58207369#2 -58207369#1 28549731#3 28549731#4 28549731#6 28549731#7 28549731#8 28549731#9 28549731#10 28549731#11 28549731#12"/>
	</vehicle>
	<vehicle id ="38" depart ="1725.17" type ="Car">
		 <route edges= "-58207369#2 -58207369#1 28549731#3 28549731#4 28549731#6 28549731#7 28549731#8 28549731#9 28549731#10 28549731#11 28549731#12"/>
	</vehicle>
	<vehicle id ="39" depart ="1740.22" type ="Car">
		 <route edges= "-58207369#2 -58207369#1 28549731#3 28549731#4 28549731#6 28549731#7 28549731#8 28549731#9 28549731#10 28549731#11 28549731#12"/>
	</vehicle>
	<vehicle id ="40" depart ="1887.67" type ="Car">
		 <route edges= "-58207369#2 -58207369#1 28549731#3 28549731#4 28549731#6 28549731#7 28549731#8 28549731#9 345230672#0 345230672#1"/>
	</vehicle>
	<vehicle id ="41" depart ="1891.41" type ="Car">
		 <route edges= "-345230672#1 -345230672#0 -28549731#9 -28549731#8 -28549731#7 -28549731#6 -28549731#4 -28549731#3 58207369#1 58207369#2"/>
	</vehicle>
	<vehicle id ="42" depart ="2184.22" type ="Car">
		 <route edges= "28549731#0 28549731#1 28549731#2 28549731#3 28549731#4 28549731#6 28549731#7 28549731#8 28549731#9 345230672#0 345230672#1"/>
	</vehicle>
	<vehicle id ="43" depart ="2257.89" type ="Car">
		 <route edges= "-28549731#12 -28549731#11 -28549731#10 -28549731#9 -28549731#8 -28549731#7 -28549731#6 -28549731#4 -28549731#3 58207369#1 58207369#2"/>
	</vehicle>
	<vehicle id ="44" depart ="2287.9" type ="Car">
		 <route edges= "-58207369#2 -58207369#1 28549731#3 28549731#4 28549731#6 28549731#7 28549731#8 28549731#9 345230672#0 345230672#1"/>
	</vehicle>
	<vehicle id ="45" depart ="2339.36" type ="Car">
		 <route edges= "-345230672#1 -345230672#0 -28549731#9 -28549731#8 -28549731#7 -28549731#6 -28549731#4 -28549731#3 -28549731#2 -28549731#1 -28549731#0"/>
	</vehicle>
	<vehicle id ="46" depart ="2363.25" type ="Car">
		 <route edges= "-345230672#1 -345230672#0 -28549731#9 -28549731#8 -28549731#7 -28549731#6 -28549731#4 -28549731#3 58207369#1 58207369#2"/>
	</vehicle>
	<vehicle id ="47" depart ="2657.52" type ="Car">
		 <route edges= "-345230672#1 -345230672#0 -28549731#9 -28549731#8 -28549731#7 -28549731#6 -28549731#4 -28549731#3 58207369#1 58207369#2"/>
	</vehicle>
	<vehicle id ="48" depart ="2735.62" type ="Car">
		 <route edges= "28549731#0 28549731#1 28549731#2 28549731#3 28549731#4 28549731#6 28549731#7 28549731#8 28549731#9 345230672#0 345230672#1"/>
	</vehicle>
	<vehicle id ="49" depart ="2896.39" type ="Car">
		 <route edges= "-345230672#1 -345230672#0 -28549731#9 -28549731#8 -28549731#7 -28549731#6 -28549731#4 -28549731#3 58207369#1 58207369#2"/>
	</vehicle>
	<vehicle id ="50" depart ="3020.63" type ="Car">
		 <route edges= "28549731#0 28549731#1 28549731#2 28549731#3 28549731#4 28549731#6 28549731#7 28549731#8 28549731#9 28549731#10 28549731#11 28549731#12"/>
	</vehicle>
	<vehicle id ="51" depart ="3171.98" type ="Car">
		 <route edges= "-28549731#12 -28549731#11 -28549731#10 -28549731#9 -28549731#8 -28549731#7 -28549731#6 -28549731#4 -28549731#3 -28549731#2 -28549731#1 -28549731#0"/>
	</vehicle>
	<vehicle id ="52" depart ="3304.5" type ="Car">
		 <route edges= "-58207369#2 -58207369#1 28549731#3 28549731#4 28549731#6 28549731#7 28549731#8 28549731#9 28549731#10 28549731#11 28549731#12"/>
	</vehicle>
	<vehicle id ="53" depart ="3374.2" type ="Car">
		 <route edges= "-28549731#12 -28549731#11 -28549731#10 -28549731#9 -28549731#8 -28549731#7 -28549731#6 -28549731#4 -28549731#3 58207369#1 58207369#2"/>
	</vehicle>
	<vehicle id ="54" depart ="3515.61" type ="Car">
		 <route edges= "28549731#0 28549731#1 28549731#2 28549731#3 28549731#4 28549731#6 28549731#7 28549731#8 28549731#9 28549731#10 28549731#11 28549731#12"/>
	</vehicle>
	<vehicle id ="55" depart ="3534.67" type ="Car">
		 <route edges= "-58207369#2 -58207369#1 28549731#3 28549731#4 28549731#6 28549731#7 28549731#8 28549731#9 28549731#10 28549731#11 28549731#12"/>
	</vehicle>
	<vehicle id ="56" depart ="4014.18" type ="Car">
		 <route edges= "28549731#0 28549731#1 28549731#2 28549731#3 28549731#4 28549731#6 28549731#7 28549731#8 28549731#9 345230672#0 345230672#1"/>
	</vehicle>
	<vehicle id ="57" depart ="4055.46" type ="Car">
		 <route edges= "-28549731#12 -28549731#11 -28549731#10 -28549731#9 -28549731#8 -28549731#7 -28549731#6 -28549731#4 -28549731#3 -28549731#2 -28549731#1 -28549731#0"/>
	</vehicle>
	<vehicle id ="58" depart ="4123.69" type ="Car">
		 <route edges= "-58207369#2 -58207369#1 28549731#3 28549731#4 28549731#6 28549731#7 28549731#8 28549731#9 345230672#0 345230672#1"/>
	</vehicle>
	<vehicle id ="59" depart ="4229.34" type ="Car">
		 <route edges= "-345230672#1 -345230672#0 -28549731#9 -28549731#8 -28549731#7 -28549731#6 -28549731#4 -28549731#3 58207369#1 58207369#2"/>
	</vehicle>
	<vehicle id ="60" depart ="4244.75" type ="Car">
		 <route edges= "-58207369#2 -58207369#1 28549731#3 28549731#4 28549731#6 28549731#7 28549731#8 28549731#9 28549731#10 28549731#11 28549731#12"/>
	</vehicle>
	<vehicle id ="61" depart ="4324.32" type ="Car">
		 <route edges= "-345230672#1 -345230672#0 -28549731#9 -28549731#8 -28549731#7 -28549731#6 -28549731#4 -28549731#3 58207369#1 58207369#2"/>
	</vehicle>
	<vehicle id ="62" depart ="4442.81" type ="Bus">
		 <route edges= "-58207369#2 -58207369#1 28549731#3 28549731#4 28549731#6 28549731#7 28549731#8 28549731#9 345230672#0 345230672#1"/>
	</vehicle>
	<vehicle id ="63" depart ="4527.35" type ="Car">
		 <route edges= "28549731#0 28549731#1 28549731#2 28549731#3 28549731#4 28549731#6 28549731#7 28549731#8 28549731#9 345230672#0 345230672#1"/>
	</vehicle>
	<vehicle id ="64" depart ="4544.23" type ="Truck">
		 <route edges= "-28549731#12 -28549731#11 -28549731#10 -28549731#9 -28549731#8 -28549731#7 -28549731#6 -28549731#4 -28549731#3 58207369#1 58207369#2"/>
	</vehicle>
	<vehicle id ="65" depart ="4546.77" type ="Car">
		 <route edges= "-58207369#2 -58207369#1 28549731#3 28549731#4 28549731#6 28549731#7 28549731#8 28549731#9 28549731#10 28549731#11 28549731#12"/>
	</vehicle>
	<vehicle id ="66" depart ="4587.58" type ="Car">
		 <route edges= "-28549731#12 -28549731#11 -28549731#10 -28549731#9 -28549731#8 -28549731#7 -28549731#6 -28549731#4 -28549731#3 58207369#1 58207369#2"/>
	</vehicle>
	<vehicle id ="67" depart ="4644.39" type ="Car">
		 <route edges= "28549731#0 28549731#1 28549731#2 28549731#3 28549731#4 28549731#6 28549731#7 28549731#8 28549731#9 28549731#10 28549731#11 28549731#12"/>
	</vehicle>
	<vehicle id ="68" depart ="5218.76" type ="Car">
		 <route edges= "-28549731#12 -28549731#11 -28549731#10 -28549731#9 -28549731#8 -28549731#7 -28549731#6 -28549731#4 -28549731#3 58207369#1 58207369#2"/>
	</vehicle>
	<vehicle id ="69" depart ="5247.57" type ="Car">
		 <route edges= "-58207369#2 -58207369#1 28549731#3 28549731#4 28549731#6 28549731#7 28549731#8 28549731#9 345230672#0 345230672#1"/>
	</vehicle>
	<vehicle id ="70" depart ="5393.34" type ="Car">
		 <route edges= "-28549731#12 -28549731#11 -28549731#10 -28549731#9 -28549731#8 -28549731#7 -28549731#6 -28549731#4 -28549731#3 -28549731#2 -28549731#1 -28549731#0"/>
	</vehicle>
	<vehicle id ="71" depart ="5514.97" type ="Car">
		 <route edges= "28549731#0 28549731#1 28549731#2 28549731#3 28549731#4 28549731#6 28549731#7 28549731#8 28549731#9 28549731#10 28549731#11 28549731#12"/>
	</vehicle>
	<vehicle id ="72" depart ="5525.54" type ="Car">
		 <route edges= "-345230672#1 -345230672#0 -28549731#9 -28549731#8 -28549731#7 -28549731#6 -28549731#4 -28549731#3 -28549731#2 -28549731#1 -28549731#0"/>
	</vehicle>
	<vehicle id ="73" depart ="5596.58" type ="Car">
		 <route edges= "-58207369#2 -58207369#1 28549731#3 28549731#4 28549731#6 28549731#7 28549731#8 28549731#9 28549731#10 28549731#11 28549731#12"/>
	</vehicle>
	<vehicle id ="74" depart ="6113.73" type ="Car">
		 <route edges= "-58207369#2 -58207369#1 28549731#3 28549731#4 28549731#6 28549731#7 28549731#8 28549731#9 345230672#0 345230672#1"/>
	</vehicle>
	<vehicle id ="75" depart ="6265.93" type ="Bus">
		 <route edges= "28549731#0 28549731#1 28549731#2 28549731#3 28549731#4 28549731#6 28549731#7 28549731#8 28549731#9 345230672#0 345230672#1"/>
	</vehicle>
	<vehicle id ="76" depart ="6441.03" type ="Car">
		 <route edges= "-58207369#2 -58207369#1 28549731#3 28549731#4 28549731#6 28549731#7 28549731#8 28549731#9 345230672#0 345230672#1"/>
	</vehicle>
	<vehicle id ="77" depart ="7139.8" type ="Truck">
		 <route edges= "-28549731#12 -28549731#11 -28549731#10 -28549731#9 -28549731#8 -28549731#7 -28549731#6 -28549731#4 -28549731#3 58207369#1 58207369#2"/>
	</vehicle>
	<vehicle id ="78" depart ="7189.96" type ="Car">
		 <route edges= "-345230672#1 -345230672#0 -28549731#9 -28549731#8 -28549731#7 -28549731#6 -28549731#4 -28549731#3 -28549731#2 -28549731#1 -28549731#0"/>
	</vehicle>
	<vehicle id ="79" depart ="7243.87" type ="Car">
		 <route edges= "28549731#0 28549731#1 28549731#2 28549731#3 28549731#4 28549731#6 28549731#7 28549731#8 28549731#9 28549731#10 28549731#11 28549731#12"/>
	</vehicle>
	<vehicle id ="80" depart ="7456.79" type ="Bus">
		 <route edges= "-28549731#12 -28549731#11 -28549731#10 -28549731#9 -28549731#8 -28549731#7 -28549731#6 -28549731#4 -28549731#3 -28549731#2 -28549731#1 -28549731#0"/>
	</vehicle>
	<vehicle id ="81" depart ="7510.7" type ="Car">
		 <route edges= "28549731#0 28549731#1 28549731#2 28549731#3 28549731#4 28549731#6 28549731#7 28549731#8 28549731#9 345230672#0 345230672#1"/>
	</vehicle>
	<vehicle id ="82" depart ="7600.88" type ="Car">
		 <route edges= "-28549731#12 -28549731#11 -28549731#10 -28549731#9 -28549731#8 -28549731#7 -28549731#6 -28549731#4 -28549731#3 -28549731#2 -28549731#1 -28549731#0"/>
	</vehicle>
	<vehicle id ="83" depart ="7828.69" type ="Car">
		 <route edges= "-345230672#1 -345230672#0 -28549731#9 -28549731#8 -28549731#7 -28549731#6 -28549731#4 -28549731#3 58207369#1 58207369#2"/>
	</vehicle>
	<vehicle id ="84" depart ="7953.09" type ="Car">
		 <route edges= "-28549731#12 -28549731#11 -28549731#10 -28549731#9 -28549731#8 -28549731#7 -28549731#6 -28549731#4 -28549731#3 -28549731#2 -28549731#1 -28549731#0"/>
	</vehicle>
	<vehicle id ="85" depart ="8345.68" type ="Car">
		 <route edges= "28549731#0 28549731#1 28549731#2 28549731#3 28549731#4 28549731#6 28549731#7 28549731#8 28549731#9 345230672#0 345230672#1"/>
	</vehicle>
	<vehicle id ="86" depart ="8763.32" type ="Car">
		 <route edges= "-28549731#12 -28549731#11 -28549731#10 -28549731#9 -28549731#8 -28549731#7 -28549731#6 -28549731#4 -28549731#3 58207369#1 58207369#2"/>
	</vehicle>
	<vehicle id ="87" depart ="8770.93" type ="Car">
		 <route edges= "28549731#0 28549731#1 28549731#2 28549731#3 28549731#4 28549731#6 28549731#7 28549731#8 28549731#9 345230672#0 345230672#1"/>
	</vehicle>
	<vehicle id ="88" depart ="8913.92" type ="Car">
		 <route edges= "-345230672#1 -345230672#0 -28549731#9 -28549731#8 -28549731#7 -28549731#6 -28549731#4 -28549731#3 -28549731#2 -28549731#1 -28549731#0"/>
	</vehicle>
	<vehicle id ="89" depart ="8953.63" type ="Car">
		 <route edges= "-58207369#2 -58207369#1 28549731#3 28549731#4 28549731#6 28549731#7 28549731#8 28549731#9 345230672#0 345230672#1"/>
	</vehicle>
	<vehicle id ="90" depart ="9096.86" type ="Car">
		 <route edges= "28549731#0 28549731#1 28549731#2 28549731#3 28549731#4 28549731#6 28549731#7 28549731#8 28549731#9 28549731#10 28549731#11 28549731#12"/>
	</vehicle>
	<vehicle id ="91" depart ="9133.02" type ="Car">
		 <route edges= "-28549731#12 -28549731#11 -28549731#10 -28549731#9 -28549731#8 -28549731#7 -28549731#6 -28549731#4 -28549731#3 58207369#1 58207369#2"/>
	</vehicle>
	<vehicle id ="92" depart ="9281.28" type ="Car">
		 <route edges= "-58207369#2 -58207369#1 28549731#3 28549731#4 28549731#6 28549731#7 28549731#8 28549731#9 28549731#10 28549731#11 28549731#12"/>
	</vehicle>
	<vehicle id ="93" depart ="9466.65" type ="Truck">
		 <route edges= "-28549731#12 -28549731#11 -28549731#10 -28549731#9 -28549731#8 -28549731#7 -28549731#6 -28549731#4 -28549731#3 -28549731#2 -28549731#1 -28549731#0"/>
	</vehicle>
	<vehicle id ="94" depart ="9794.41" type ="Car">
		 <route edges= "-345230672#1 -345230672#0 -28549731#9 -28549731#8 -28549731#7 -28549731#6 -28549731#4 -28549731#3 -28549731#2 -28549731#1 -28549731#0"/>
	</vehicle>
	<vehicle id ="95" depart ="9972.38" type ="Car">
		 <route edges= "-345230672#1 -345230672#0 -28549731#9 -28549731#8 -28549731#7 -28549731#6 -28549731#4 -28549731#3 58207369#1 58207369#2"/>
	</vehicle>
	<vehicle id ="96" depart ="9985.32" type ="Bus">
		 <route edges= "-345230672#1 -345230672#0 -28549731#9 -28549731#8 -28549731#7 -28549731#6 -28549731#4 -28549731#3 58207369#1 58207369#2"/>
	</vehicle>
	<vehicle id ="97" depart ="10084.04" type ="Car">
		 <route edges= "-345230672#1 -345230672#0 -28549731#9 -28549731#8 -28549731#7 -28549731#6 -28549731#4 -28549731#3 -28549731#2 -28549731#1 -28549731#0"/>
	</vehicle>
	<vehicle id ="98" depart ="10724.15" type ="Car">
		 <route edges= "-345230672#1 -345230672#0 -28549731#9 -28549731#8 -28549731#7 -28549731#6 -28549731#4 -28549731#3 58207369#1 58207369#2"/>
	</vehicle>
	<vehicle id ="99" depart ="10910.06" type ="Car">
		 <route edges= "-58207369#2 -58207369#1 28549731#3 28549731#4 28549731#6 28549731#7 28549731#8 28549731#9 28549731#10 28549731#11 28549731#12"/>
	</vehicle>
	<vehicle id ="100" depart ="11105.32" type ="Car">
		 <route edges= "-345230672#1 -345230672#0 -28549731#9 -28549731#8 -28549731#7 -28549731#6 -28549731#4 -28549731#3 58207369#1 58207369#2"/>
	</vehicle>
	<vehicle id ="101" depart ="11230.58" type ="Car">
		 <route edges= "28549731#0 28549731#1 28549731#2 28549731#3 28549731#4 28549731#6 28549731#7 28549731#8 28549731#9 28549731#10 28549731#11 28549731#12"/>
	</vehicle>
	<vehicle id ="102" depart ="11236.56" type ="Car">
		 <route edges= "-345230672#1 -345230672#0 -28549731#9 -28549731#8 -28549731#7 -28549731#6 -28549731#4 -28549731#3 58207369#1 58207369#2"/>
	</vehicle>
	<vehicle id ="103" depart ="11256.78" type ="Car">
		 <route edges= "-58207369#2 -58207369#1 28549731#3 28549731#4 28549731#6 28549731#7 28549731#8 28549731#9 28549731#10 28549731#11 28549731#12"/>
	</vehicle>
	<vehicle id ="104" depart ="11330.95" type ="Car">
		 <route edges= "-345230672#1 -345230672#0 -28549731#9 -28549731#8 -28549731#7 -28549731#6 -28549731#4 -28549731#3 58207369#1 58207369#2"/>
	</vehicle>
	<vehicle id ="105" depart ="11499.99" type ="Car">
		 <route edges= "-58207369#2 -58207369#1 28549731#3 28549731#4 28549731#6 28549731#7 28549731#8 28549731#9 345230672#0 345230672#1"/>
	</vehicle>
	<vehicle id ="106" depart ="11684.57" type ="Car">
		 <route edges= "-345230672#1 -345230672#0 -28549731#9 -28549731#8 -28549731#7 -28549731#6 -28549731#4 -28549731#3 58207369#1 58207369#2"/>
	</vehicle>
	<vehicle id ="107" depart ="11781.18" type ="Car">
		 <route edges= "28549731#0 28549731#1 28549731#2 28549731#3 28549731#4 28549731#6 28549731#7 28549731#8 28549731#9 28549731#10 28549731#11 28549731#12"/>
	</vehicle>
	<vehicle id ="108" depart ="11789.74" type ="Bus">
		 <route edges= "-345230672#1 -345230672#0 -28549731#9 -28549731#8 -28549731#7 -28549731#6 -28549731#4 -28549731#3 -28549731#2 -28549731#1 -28549731#0"/>
	</vehicle>
	<vehicle id ="109" depart ="11812.47" type ="Car">
		 <route edges= "28549731#0 28549731#1 28549731#2 28549731#3 28549731#4 28549731#6 28549731#7 28549731#8 28549731#9 345230672#0 345230672#1"/>
	</vehicle>
	<vehicle id ="110" depart ="11895.0" type ="Car">
		 <route edges= "-345230672#1 -345230672#0 -28549731#9 -28549731#8 -28549731#7 -28549731#6 -28549731#4 -28549731#3 -28549731#2 -28549731#1 -28549731#0"/>
	</vehicle>
	<vehicle id ="111" depart ="11924.02" type ="Car">
		 <route edges= "28549731#0 28549731#1 28549731#2 28549731#3 28549731#4 28549731#6 28549731#7 28549731#8 28549731#9 28549731#10 28549731#11 28549731#12"/>
	</vehicle>
	<vehicle id ="112" depart ="11944.74" type ="Bus">
		 <route edges= "-345230672#1 -345230672#0 -28549731#9 -28549731#8 -28549731#7 -28549731#6 -28549731#4 -28549731#3 -28549731#2 -28549731#1 -28549731#0"/>
	</vehicle>
	<vehicle id ="113" depart ="12002.24" type ="Car">
		 <route edges= "-58207369#2 -58207369#1 28549731#3 28549731#4 28549731#6 28549731#7 28549731#8 28549731#9 28549731#10 28549731#11 28549731#12"/>
	</vehicle>
	<vehicle id ="114" depart ="12126.71" type ="Car">
		 <route edges= "-28549731#12 -28549731#11 -28549731#10 -28549731#9 -28549731#8 -28549731#7 -28549731#6 -28549731#4 -28549731#3 58207369#1 58207369#2"/>
	</vehicle>
	<vehicle id ="115" depart ="12248.17" type ="Car">
		 <route edges= "28549731#0 28549731#1 28549731#2 28549731#3 28549731#4 28549731#6 28549731#7 28549731#8 28549731#9 345230672#0 345230672#1"/>
	</vehicle>
	<vehicle id ="116" depart ="12282.82" type ="Car">
		 <route edges= "-345230672#1 -345230672#0 -28549731#9 -28549731#8 -28549731#7 -28549731#6 -28549731#4 -28549731#3 58207369#1 58207369#2"/>
	</vehicle>
	<vehicle id ="117" depart ="12370.58" type ="Bus">
		 <route edges= "-58207369#2 -58207369#1 28549731#3 28549731#4 28549731#6 28549731#7 28549731#8 28549731#9 28549731#10 28549731#11 28549731#12"/>
	</vehicle>
	<vehicle id ="118" depart ="12418.21" type ="Car">
		 <route edges= "-345230672#1 -345230672#0 -28549731#9 -28549731#8 -28549731#7 -28549731#6 -28549731#4 -28549731#3 58207369#1 58207369#2"/>
	</vehicle>
	<vehicle id ="119" depart ="12430.31" type ="Car">
		 <route edges= "-58207369#2 -58207369#1 28549731#3 28549731#4 28549731#6 28549731#7 28549731#8 28549731#9 28549731#10 28549731#11 28549731#12"/>
	</vehicle>
	<vehicle id ="120" depart ="12491.05" type ="Car">
		 <route edges= "-28549731#12 -28549731#11 -28549731#10 -28549731#9 -28549731#8 -28549731#7 -28549731#6 -28549731#4 -28549731#3 58207369#1 58207369#2"/>
	</vehicle>
	<vehicle id ="121" depart ="12523.89" type ="Bus">
		 <route edges= "-28549731#12 -28549731#11 -28549731#10 -28549731#9 -28549731#8 -28549731#7 -28549731#6 -28549731#4 -28549731#3 -28549731#2 -28549731#1 -28549731#0"/>
	</vehicle>
	<vehicle id ="122" depart ="12543.42" type ="Car">
		 <route edges= "-345230672#1 -345230672#0 -28549731#9 -28549731#8 -28549731#7 -28549731#6 -28549731#4 -28549731#3 -28549731#2 -28549731#1 -28549731#0"/>
	</vehicle>
	<vehicle id ="123" depart ="12595.11" type ="Bus">
		 <route edges= "-345230672#1 -345230672#0 -28549731#9 -28549731#8 -28549731#7 -28549731#6 -28549731#4 -28549731#3 -28549731#2 -28549731#1 -28549731#0"/>
	</vehicle>
	<vehicle id ="124" depart ="12654.93" type ="Bus">
		 <route edges= "-58207369#2 -58207369#1 28549731#3 28549731#4 28549731#6 28549731#7 28549731#8 28549731#9 345230672#0 345230672#1"/>
	</vehicle>
	<vehicle id ="125" depart ="12655.46" type ="Car">
		 <route edges= "-28549731#12 -28549731#11 -28549731#10 -28549731#9 -28549731#8 -28549731#7 -28549731#6 -28549731#4 -28549731#3 58207369#1 58207369#2"/>
	</vehicle>
	<vehicle id ="126" depart ="12663.62" type ="Car">
		 <route edges= "28549731#0 28549731#1 28549731#2 28549731#3 28549731#4 28549731#6 28549731#7 28549731#8 28549731#9 28549731#10 28549731#11 28549731#12"/>
	</vehicle>
	<vehicle id ="127" depart ="12714.73" type ="Car">
		 <route edges= "-28549731#12 -28549731#11 -28549731#10 -28549731#9 -28549731#8 -28549731#7 -28549731#6 -28549731#4 -28549731#3 58207369#1 58207369#2"/>
	</vehicle>
	<vehicle id ="128" depart ="12796.69" type ="Car">
		 <route edges= "28549731#0 28549731#1 28549731#2 28549731#3 28549731#4 28549731#6 28549731#7 28549731#8 28549731#9 345230672#0 345230672#1"/>
	</vehicle>
	<vehicle id ="129" depart ="12894.39" type ="Car">
		 <route edges= "-28549731#12 -28549731#11 -28549731#10 -28549731#9 -28549731#8 -28549731#7 -28549731#6 -28549731#4 -28549731#3 -28549731#2 -28549731#1 -28549731#0"/>
	</vehicle>
	<vehicle id ="130" depart ="13020.06" type ="Car">
		 <route edges= "28549731#0 28549731#1 28549731#2 28549731#3 28549731#4 28549731#6 28549731#7 28549731#8 28549731#9 28549731#10 28549731#11 28549731#12"/>
	</vehicle>
	<vehicle id ="131" depart ="13043.59" type ="Car">
		 <route edges= "-345230672#1 -345230672#0 -28549731#9 -28549731#8 -28549731#7 -28549731#6 -28549731#4 -28549731#3 58207369#1 58207369#2"/>
	</vehicle>
	<vehicle id ="132" depart ="13053.0" type ="Car">
		 <route edges= "28549731#0 28549731#1 28549731#2 28549731#3 28549731#4 28549731#6 28549731#7 28549731#8 28549731#9 28549731#10 28549731#11 28549731#12"/>
	</vehicle>