<?xml version='1.0' encoding='UTF-8'?>
<routes xmlns:xsi='http://www.w3.org/2001/XMLSchema-instance' xsi:noNamespaceSchemaLocation='http://sumo.dlr.de/xsd/routes_file.xsd'>
	<vType id='Car' emissionClass='HBEFA3/PC_G_EU4' accel='3.0' decel='6.0' length='5.0' minGap='2.5' maxSpeed='50.0'/>
	<vType id='Bus' emissionClass='HBEFA3/LDV_D_EU4' accel='2.0' decel='5.0' length='7.0' minGap='3.5' maxSpeed='40.0' color='red' guiShape='bus'/>
	<vType id='Truck' emissionClass='HBEFA3/HDV_D_EU4' accel='1.0' decel='5.0' length='7.0' minGap='3.5' maxSpeed='40.0' color='blue' guiShape='truck'/>
	<vType id='Motor_Bike' emissionClass='HBEFA3/PC_G_EU4' accel='2.0' decel='4.0' length='3.0' minGap='2.5' maxSpeed='50.0' color='165,105,189' guiShape='motorcycle'/>
	<vType id='electricCar' emissionClass='Zero' accel='3.0' decel='6.0' length='5.0' minGap='2.5' maxSpeed='50.0' color='green'>
		 <param key='has.battery.device' value='true'/> 
		 <param key='device.battery.capacity' value='2000'/> 
		 <param key='maximumPower' value='1000'/> 
		 <param key='frontSurfaceArea' value='5'/> 
		 <param key='airDragCoefficient' value='0.6'/> 
		 <param key='rotatingMass' value='100'/> 
		 <param key='radialDragCoefficient' value='0.5'/> 
		 <param key='rollDragCoefficient' value='0.01'/> 
		 <param key='constantPowerIntake' value='100'/> 
		 <param key='propulsionEfficiency' value='0.9'/> 
		 <param key='recuperationEfficiency' value='0.9'/> 
		 <param key='stoppingThreshold' value='0.1'/> 
		 <param key='device.battery.maximumChargeRate' value='150000'/> 
	</vType>
	<vehicle id ="1" depart ="432.2" type ="Truck">
		 <route edges= "28549731#0 28549731#1 28549731#2 28549731#3 28549731#4 28549731#6 28549731#7 28549731#8 28549731#9 28549731#10 28549731#11 28549731#12"/>
	</vehicle>
	<vehicle id ="2" depart ="611.22" type ="Car">
		 <route edges= "-28549731#12 -28549731#11 -28549731#10 -28549731#9 -28549731#8 -28549731#7 -28549731#6 -28549731#4 -28549731#3 -28549731#2 -28549731#1 -28549731#0"/>
	</vehicle>
	<vehicle id ="3" depart ="773.86" type ="Car">
		 <route edges= "-345230672#1 -345230672#0 -28549731#9 -28549731#8 -28549731#7 -28549731#6 -28549731#4 -28549731#3 58207369#1 58207369#2"/>
	</vehicle>
	<vehicle id ="4" depart ="887.87" type ="Car">
		 <route edges= "-345230672#1 -345230672#0 -28549731#9 -28549731#8 -28549731#7 -28549731#6 -28549731#4 -28549731#3 -28549731#2 -28549731#1 -28549731#0"/>
	</vehicle>
	<vehicle id ="5" depart ="968.13" type ="Car">
		 <route edges= "-345230672#1 -345230672#0 -28549731#9 -28549731#8 -28549731#7 -28549731#6 -28549731#4 -28549731#3 -28549731#2 -28549731#1 -28549731#0"/>
	</vehicle>
	<vehicle id ="6" depart ="1019.73" type ="Car">
		 <route edges= "-345230672#1 -345230672#0 -28549731#9 -28549731#8 -28549731#7 -28549731#6 -28549731#4 -28549731#3 58207369#1 58207369#2"/>
	</vehicle>
	<vehicle id ="7" depart ="1340.18" type ="Car">
		 <route edges= "-28549731#12 -28549731#11 -28549731#10 -28549731#9 -28549731#8 -28549731#7 -28549731#6 -28549731#4 -28549731#3 -28549731#2 -28549731#1 -28549731#0"/>
	</vehicle>
	<vehicle id ="8" depart ="1570.07" type ="Car">
		 <route edges= "-28549731#12 -28549731#11 -28549731#10 -28549731#9 -28549731#8 -28549731#7 -28549731#6 -28549731#4 -28549731#3 -28549731#2 -28549731#1 -28549731#0"/>
	</vehicle>
	<vehicle id ="9" depart ="1633.74" type ="Car">
		 <route edges= "-345230672#1 -345230672#0 -28549731#9 -28549731#8 -28549731#7 -28549731#6 -28549731#4 -28549731#3 -28549731#2 -28549731#1 -28549731#0"/>
	</vehicle>
	<vehicle id ="10" depart ="2093.95" type ="Car">
		 <route edges= "28549731#0 28549731#1 28549731#2 28549731#3 28549731#4 28549731#6 28549731#7 28549731#8 28549731#9 345230672#0 345230672#1"/>
	</vehicle>
	<vehicle id ="11" depart ="2261.61" type ="Truck">
		 <route edges= "-28549731#12 -28549731#11 -28549731#10 -28549731#9 -28549731#8 -28549731#7 -28549731#6 -28549731#4 -28549731#3 -28549731#2 -28549731#1 -28549731#0"/>
	</vehicle>
	<vehicle id ="12" depart ="2321.61" type ="Car">
		 <route edges= "-58207369#2 -58207369#1 28549731#3 28549731#4 28549731#6 28549731#7 28549731#8 28549731#9 28549731#10 28549731#11 28549731#12"/>
	</vehicle>
	<vehicle id ="13" depart ="2458.04" type ="Car">
		 <route edges= "-28549731#12 -28549731#11 -28549731#10 -28549731#9 -28549731#8 -28549731#7 -28549731#6 -28549731#4 -28549731#3 -28549731#2 -28549731#1 -28549731#0"/>
	</vehicle>
	<vehicle id ="14" depart ="2479.55" type ="Bus">
		 <route edges= "28549731#0 28549731#1 28549731#2 28549731#3 28549731#4 28549731#6 28549731#7 28549731#8 28549731#9 28549731#10 28549731#11 28549731#12"/>
	</vehicle>
	<vehicle id ="15" depart ="2771.87" type ="Car">
		 <route edges= "-345230672#1 -345230672#0 -28549731#9 -28549731#8 -28549731#7 -28549731#6 -28549731#4 -28549731#3 -28549731#2 -28549731#1 -28549731#0"/>
	</vehicle>
	<vehicle id ="16" depart ="3939.74" type ="Truck">
		 <route edges= "28549731#0 28549731#1 28549731#2 28549731#3 28549731#4 28549731#6 28549731#7 28549731#8 28549731#9 28549731#10 28549731#11 28549731#12"/>
	</vehicle>
	<vehicle id ="17" depart ="4286.44" type ="Car">
		 <route edges= "-345230672#1 -345230672#0 -28549731#9 -28549731#8 -28549731#7 -28549731#6 -28549731#4 -28549731#3 -28549731#2 -28549731#1 -28549731#0"/>
	</vehicle>
	<vehicle id ="18" depart ="4366.46" type ="Car">
		 <route edges= "-345230672#1 -345230672#0 -28549731#9 -28549731#8 -28549731#7 -28549731#6 -28549731#4 -28549731#3 58207369#1 58207369#2"/>
	</vehicle>
	<vehicle id ="19" depart ="4450.44" type ="Car">
		 <route edges= "-345230672#1 -345230672#0 -28549731#9 -28549731#8 -28549731#7 -28549731#6 -28549731#4 -28549731#3 -28549731#2 -28549731#1 -28549731#0"/>
	</vehicle>
	<vehicle id ="20" depart ="4666.67" type ="Truck">
		 <route edges= "28549731#0 28549731#1 28549731#2 28549731#3 28549731#4 28549731#6 28549731#7 28549731#8 28549731#9 28549731#10 28549731#11 28549731#12"/>
	</vehicle>
	<vehicle id ="21" depart ="4741.56" type ="Car">
		 <route edges= "-28549731#12 -28549731#11 -28549731#10 -28549731#9 -28549731#8 -28549731#7 -28549731#6 -28549731#4 -28549731#3 -28549731#2 -28549731#1 -28549731#0"/>
	</vehicle>
	<vehicle id ="22" depart ="4856.66" type ="Truck">
		 <route edges= "28549731#0 28549731#1 28549731#2 28549731#3 28549731#4 28549731#6 28549731#7 28549731#8 28549731#9 345230672#0 345230672#1"/>
	</vehicle>
	<vehicle id ="23" depart ="4864.05" type ="Truck">
		 <route edges= "-28549731#12 -28549731#11 -28549731#10 -28549731#9 -28549731#8 -28549731#7 -28549731#6 -28549731#4 -28549731#3 -28549731#2 -28549731#1 -28549731#0"/>
	</vehicle>
	<vehicle id ="24" depart ="5070.46" type ="Bus">
		 <route edges= "28549731#0 28549731#1 28549731#2 28549731#3 28549731#4 28549731#6 28549731#7 28549731#8 28549731#9 345230672#0 345230672#1"/>
	</vehicle>
	<vehicle id ="25" depart ="5401.08" type ="Car">
		 <route edges= "28549731#0 28549731#1 28549731#2 28549731#3 28549731#4 28549731#6 28549731#7 28549731#8 28549731#9 345230672#0 345230672#1"/>
	</vehicle>
	<vehicle id ="26" depart ="5629.68" type ="Car">
		 <route edges= "-345230672#1 -345230672#0 -28549731#9 -28549731#8 -28549731#7 -28549731#6 -28549731#4 -28549731#3 58207369#1 58207369#2"/>
	</vehicle>
	<vehicle id ="27" depart ="5826.83" type ="Truck">
		 <route edges= "28549731#0 28549731#1 28549731#2 28549731#3 28549731#4 28549731#6 28549731#7 28549731#8 28549731#9 28549731#10 28549731#11 28549731#12"/>
	</vehicle>
	<vehicle id ="28" depart ="5863.41" type ="Truck">
		 <route edges= "-345230672#1 -345230672#0 -28549731#9 -28549731#8 -28549731#7 -28549731#6 -28549731#4 -28549731#3 -28549731#2 -28549731#1 -28549731#0"/>
	</vehicle>
	<vehicle id ="29" depart ="6024.1" type ="Car">
		 <route edges= "28549731#0 28549731#1 28549731#2 28549731#3 28549731#4 28549731#6 28549731#7 28549731#8 28549731#9 28549731#10 28549731#11 28549731#12"/>
	</vehicle>
	<vehicle id ="30" depart ="6097.47" type ="Car">
		 <route edges= "-58207369#2 -58207369#1 28549731#3 28549731#4 28549731#6 28549731#7 28549731#8 28549731#9 345230672#0 345230672#1"/>
	</vehicle>
	<vehicle id ="31" depart ="6371.92" type ="Truck">
		 <route edges= "28549731#0 28549731#1 28549731#2 28549731#3 28549731#4 28549731#6 28549731#7 28549731#8 28549731#9 345230672#0 345230672#1"/>
	</vehicle>
	<vehicle id ="32" depart ="6392.09" type ="Car">
		 <route edges= "-58207369#2 -58207369#1 28549731#3 28549731#4 28549731#6 28549731#7 28549731#8 28549731#9 345230672#0 345230672#1"/>
	</vehicle>
	<vehicle id ="33" depart ="6457.01" type ="Bus">
		 <route edges= "28549731#0 28549731#1 28549731#2 28549731#3 28549731#4 28549731#6 28549731#7 28549731#8 28549731#9 345230672#0 345230672#1"/>
	</vehicle>
	<vehicle id ="34" depart ="6630.11" type ="Car">
		 <route edges= "28549731#0 28549731#1 28549731#2 28549731#3 28549731#4 28549731#6 28549731#7 28549731#8 28549731#9 345230672#0 345230672#1"/>
	</vehicle>
	<vehicle id ="35" depart ="6700.35" type ="Truck">
		 <route edges= "-58207369#2 -58207369#1 28549731#3 28549731#4 28549731#6 28549731#7 28549731#8 28549731#9 345230672#0 345230672#1"/>
	</vehicle>
	<vehicle id ="36" depart ="6994.17" type ="Truck">
		 <route edges= "28549731#0 28549731#1 28549731#2 28549731#3 28549731#4 28549731#6 28549731#7 28549731#8 28549731#9 28549731#10 28549731#11 28549731#12"/>
	</vehicle>
	<vehicle id ="37" depart ="7076.03" type ="Car">
		 <route edges= "-58207369#2 -58207369#1 28549731#3 28549731#4 28549731#6 28549731#7 28549731#8 28549731#9 28549731#10 28549731#11 28549731#12"/>
	</vehicle>
	<vehicle id ="38" depart ="7445.79" type ="Car">
		 <route edges= "-58207369#2 -58207369#1 28549731#3 28549731#4 28549731#6 28549731#7 28549731#8 28549731#9 345230672#0 345230672#1"/>
	</vehicle>
	<vehicle id ="39" depart ="7475.45" type ="Bus">
		 <route edges= "-345230672#1 -345230672#0 -28549731#9 -28549731#8 -28549731#7 -28549731#6 -28549731#4 -28549731#3 58207369#1 58207369#2"/>
	</vehicle>
	<vehicle id ="40" depart ="7510.12" type ="Bus">
		 <route edges= "-58207369#2 -58207369#1 28549731#3 28549731#4 28549731#6 28549731#7 28549731#8 28549731#9 345230672#0 345230672#1"/>
	</vehicle>
	<vehicle id ="41" depart ="7642.83" type ="Car">
		 <route edges= "-345230672#1 -345230672#0 -28549731#9 -28549731#8 -28549731#7 -28549731#6 -28549731#4 -28549731#3 58207369#1 58207369#2"/>
	</vehicle>
	<vehicle id ="42" depart ="7643.93" type ="Truck">
		 <route edges= "28549731#0 28549731#1 28549731#2 28549731#3 28549731#4 28549731#6 28549731#7 28549731#8 28549731#9 28549731#10 28549731#11 28549731#12"/>
	</vehicle>
	<vehicle id ="43" depart ="7677.24" type ="Car">
		 <route edges= "-345230672#1 -345230672#0 -28549731#9 -28549731#8 -28549731#7 -28549731#6 -28549731#4 -28549731#3 58207369#1 58207369#2"/>
	</vehicle>
	<vehicle id ="44" depart ="7804.93" type ="Bus">
		 <route edges= "-345230672#1 -345230672#0 -28549731#9 -28549731#8 -28549731#7 -28549731#6 -28549731#4 -28549731#3 58207369#1 58207369#2"/>
	</vehicle>
	<vehicle id ="45" depart ="7869.41" type ="Car">
		 <route edges= "-345230672#1 -345230672#0 -28549731#9 -28549731#8 -28549731#7 -28549731#6 -28549731#4 -28549731#3 -28549731#2 -28549731#1 -28549731#0"/>
	</vehicle>
	<vehicle id ="46" depart ="7942.73" type ="Truck">
		 <route edges= "-345230672#1 -345230672#0 -28549731#9 -28549731#8 -28549731#7 -28549731#6 -28549731#4 -28549731#3 -28549731#2 -28549731#1 -28549731#0"/>
	</vehicle>
	<vehicle id ="47" depart ="8243.8" type ="Car">
		 <route edges= "-58207369#2 -58207369#1 28549731#3 28549731#4 28549731#6 28549731#7 28549731#8 28549731#9 28549731#10 28549731#11 28549731#12"/>
	</vehicle>
	<vehicle id ="48" depart ="8297.32" type ="Car">
		 <route edges= "-28549731#12 -28549731#11 -28549731#10 -28549731#9 -28549731#8 -28549731#7 -28549731#6 -28549731#4 -28549731#3 -28549731#2 -28549731#1 -28549731#0"/>
	</vehicle>
	<vehicle id ="49" depart ="8449.2" type ="Car">
		 <route edges= "28549731#0 28549731#1 28549731#2 28549731#3 28549731#4 28549731#6 28549731#7 28549731#8 28549731#9 28549731#10 28549731#11 28549731#12"/>
	</vehicle>
	<vehicle id ="50" depart ="8612.02" type ="Car">
		 <route edges= "-345230672#1 -345230672#0 -28549731#9 -28549731#8 -28549731#7 -28549731#6 -28549731#4 -28549731#3 -28549731#2 -28549731#1 -28549731#0"/>
	</vehicle>
	<vehicle id ="51" depart ="8799.84" type ="Car">
		 <route edges= "-58207369#2 -58207369#1 28549731#3 28549731#4 28549731#6 28549731#7 28549731#8 28549731#9 345230672#0 345230672#1"/>
	</vehicle>
	<vehicle id ="52" depart ="8904.95" type ="Car">
		 <route edges= "-28549731#12 -28549731#11 -28549731#10 -28549731#9 -28549731#8 -28549731#7 -28549731#6 -28549731#4 -28549731#3 -28549731#2 -28549731#1 -28549731#0"/>
	</vehicle>
	<vehicle id ="53" depart ="8942.08" type ="Car">
		 <route edges= "28549731#0 28549731#1 28549731#2 28549731#3 28549731#4 28549731#6 28549731#7 28549731#8 28549731#9 28549731#10 28549731#11 28549731#12"/>
	</vehicle>
	<vehicle id ="54" depart ="9153.97" type ="Car">
		 <route edges= "-58207369#2 -58207369#1 28549731#3 28549731#4 28549731#6 28549731#7 28549731#8 28549731#9 345230672#0 345230672#1"/>
	</vehicle>
	<vehicle id ="55" depart ="9243.2" type ="Car">
		 <route edges= "-345230672#1 -345230672#0 -28549731#9 -28549731#8 -28549731#7 -28549731#6 -28549731#4 -28549731#3 -28549731#2 -28549731#1 -28549731#0"/>
	</vehicle>
	<vehicle id ="56" depart ="9265.96" type ="Bus">
		 <route edges= "-58207369#2 -58207369#1 28549731#3 28549731#4 28549731#6 28549731#7 28549731#8 28549731#9 345230672#0 345230672#1"/>
	</vehicle>
	<vehicle id ="57" depart ="9290.0" type ="Car">
		 <route edges= "-28549731#12 -28549731#11 -28549731#10 -28549731#9 -28549731#8 -28549731#7 -28549731#6 -28549731#4 -28549731#3 -28549731#2 -28549731#1 -28549731#0"/>
	</vehicle>
	<vehicle id ="58" depart ="9301.28" type ="Car">
		 <route edges= "-58207369#2 -58207369#1 28549731#3 28549731#4 28549731#6 28549731#7 28549731#8 28549731#9 345230672#0 345230672#1"/>
	</vehicle>
	<vehicle id ="59" depart ="9399.01" type ="Bus">
		 <route edges= "-345230672#1 -345230672#0 -28549731#9 -28549731#8 -28549731#7 -28549731#6 -28549731#4 -28549731#3 -28549731#2 -28549731#1 -28549731#0"/>
	</vehicle>
	<vehicle id ="60" depart ="9510.29" type ="Car">
		 <route edges= "28549731#0 28549731#1 28549731#2 28549731#3 28549731#4 28549731#6 28549731#7 28549731#8 28549731#9 28549731#10 28549731#11 28549731#12"/>
	</vehicle>
	<vehicle id ="61" depart ="9567.21" type ="Bus">
		 <route edges= "-28549731#12 -28549731#11 -28549731#10 -28549731#9 -28549731#8 -28549731#7 -28549731#6 -28549731#4 -28549731#3 -28549731#2 -28549731#1 -28549731#0"/>
	</vehicle>
	<vehicle id ="62" depart ="9577.82" type ="Bus">
		 <route edges= "-58207369#2 -58207369#1 28549731#3 28549731#4 28549731#6 28549731#7 28549731#8 28549731#9 345230672#0 345230672#1"/>
	</vehicle>
	<vehicle id ="63" depart ="9635.99" type ="Car">
		 <route edges= "-28549731#12 -28549731#11 -28549731#10 -28549731#9 -28549731#8 -28549731#7 -28549731#6 -28549731#4 -28549731#3 -28549731#2 -28549731#1 -28549731#0"/>
	</vehicle>
	<vehicle id ="64" depart ="9656.77" type ="Car">
		 <route edges= "28549731#0 28549731#1 28549731#2 28549731#3 28549731#4 28549731#6 28549731#7 28549731#8 28549731#9 345230672#0 345230672#1"/>
	</vehicle>
	<vehicle id ="65" depart ="9667.05" type ="Car">
		 <route edges= "-28549731#12 -28549731#11 -28549731#10 -28549731#9 -28549731#8 -28549731#7 -28549731#6 -28549731#4 -28549731#3 -28549731#2 -28549731#1 -28549731#0"/>
	</vehicle>
	<vehicle id ="66" depart ="9725.62" type ="Car">
		 <route edges= "28549731#0 28549731#1 28549731#2 28549731#3 28549731#4 28549731#6 28549731#7 28549731#8 28549731#9 345230672#0 345230672#1"/>
	</vehicle>
	<vehicle id ="67" depart ="9778.8" type ="Car">
		 <route edges= "-345230672#1 -345230672#0 -28549731#9 -28549731#8 -28549731#7 -28549731#6 -28549731#4 -28549731#3 58207369#1 58207369#2"/>
	</vehicle>
	<vehicle id ="68" depart ="9822.65" type ="Car">
		 <route edges= "28549731#0 28549731#1 28549731#2 28549731#3 28549731#4 28549731#6 28549731#7 28549731#8 28549731#9 345230672#0 345230672#1"/>
	</vehicle>
	<vehicle id ="69" depart ="9824.29" type ="Car">
		 <route edges= "-28549731#12 -28549731#11 -28549731#10 -28549731#9 -28549731#8 -28549731#7 -28549731#6 -28549731#4 -28549731#3 -28549731#2 -28549731#1 -28549731#0"/>
	</vehicle>
	<vehicle id ="70" depart ="9852.45" type ="Truck">
		 <route edges= "-58207369#2 -58207369#1 28549731#3 28549731#4 28549731#6 28549731#7 28549731#8 28549731#9 345230672#0 345230672#1"/>
	</vehicle>
	<vehicle id ="71" depart ="9885.36" type ="Car">
		 <route edges= "-28549731#12 -28549731#11 -28549731#10 -28549731#9 -28549731#8 -28549731#7 -28549731#6 -28549731#4 -28549731#3 58207369#1 58207369#2"/>
	</vehicle>
	<vehicle id ="72" depart ="9893.58" type ="Truck">
		 <route edges= "28549731#0 28549731#1 28549731#2 28549731#3 28549731#4 28549731#6 28549731#7 28549731#8 28549731#9 28549731#10 28549731#11 28549731#12"/>
	</vehicle>
	<vehicle id ="73" depart ="9900.01" type ="Car">
		 <route edges= "-58207369#2 -58207369#1 28549731#3 28549731#4 28549731#6 28549731#7 28549731#8 28549731#9 345230672#0 345230672#1"/>
	</vehicle>
	<vehicle id ="74" depart ="10005.01" type ="Truck">
		 <route edges= "-28549731#12 -28549731#11 -28549731#10 -28549731#9 -28549731#8 -28549731#7 -28549731#6 -28549731#4 -28549731#3 58207369#1 58207369#2"/>
	</vehicle>
	<vehicle id ="75" depart ="10038.89" type ="Car">
		 <route edges= "28549731#0 28549731#1 28549731#2 28549731#3 28549731#4 28549731#6 28549731#7 28549731#8 28549731#9 345230672#0 345230672#1"/>
	</vehicle>
	<vehicle id ="76" depart ="10122.58" type ="Car">
		 <route edges= "-345230672#1 -345230672#0 -28549731#9 -28549731#8 -28549731#7 -28549731#6 -28549731#4 -28549731#3 -28549731#2 -28549731#1 -28549731#0"/>
	</vehicle>
	<vehicle id ="77" depart ="10359.15" type ="Bus">
		 <route edges= "28549731#0 28549731#1 28549731#2 28549731#3 28549731#4 28549731#6 28549731#7 28549731#8 28549731#9 28549731#10 28549731#11 28549731#12"/>
	</vehicle>
	<vehicle id ="78" depart ="10377.58" type ="Car">
		 <route edges= "-345230672#1 -345230672#0 -28549731#9 -28549731#8 -28549731#7 -28549731#6 -28549731#4 -28549731#3 -28549731#2 -28549731#1 -28549731#0"/>
	</vehicle>
	<vehicle id ="79" depart ="10495.74" type ="Car">
		 <route edges= "28549731#0 28549731#1 28549731#2 28549731#3 28549731#4 28549731#6 28549731#7 28549731#8 28549731#9 28549731#10 28549731#11 28549731#12"/>
	</vehicle>
	<vehicle id ="80" depart ="10508.12" type ="Bus">
		 <route edges= "-28549731#12 -28549731#11 -28549731#10 -28549731#9 -28549731#8 -28549731#7 -28549731#6 -28549731#4 -28549731#3 58207369#1 58207369#2"/>
	</vehicle>
	<vehicle id ="81" depart ="10544.84" type ="Car">
		 <route edges= "-58207369#2 -58207369#1 28549731#3 28549731#4 28549731#6 28549731#7 28549731#8 28549731#9 28549731#10 28549731#11 28549731#12"/>
	</vehicle>
	<vehicle id ="82" depart ="10666.08" type ="Bus">
		 <route edges= "-28549731#12 -28549731#11 -28549731#10 -28549731#9 -28549731#8 -28549731#7 -28549731#6 -28549731#4 -28549731#3 -28549731#2 -28549731#1 -28549731#0"/>
	</vehicle>
	<vehicle id ="83" depart ="10666.77" type ="Truck">
		 <route edges= "-345230672#1 -345230672#0 -28549731#9 -28549731#8 -28549731#7 -28549731#6 -28549731#4 -28549731#3 58207369#1 58207369#2"/>
	</vehicle>
	<vehicle id ="84" depart ="10700.29" type ="Car">
		 <route edges= "-345230672#1 -345230672#0 -28549731#9 -28549731#8 -28549731#7 -28549731#6 -28549731#4 -28549731#3 -28549731#2 -28549731#1 -28549731#0"/>
	</vehicle>
	<vehicle id ="85" depart ="10740.38" type ="Car">
		 <route edges= "-28549731#12 -28549731#11 -28549731#10 -28549731#9 -28549731#8 -28549731#7 -28549731#6 -28549731#4 -28549731#3 -28549731#2 -28549731#1 -28549731#0"/>
	</vehicle>
	<vehicle id ="86" depart ="10783.6" type ="Car">
		 <route edges= "-345230672#1 -345230672#0 -28549731#9 -28549731#8 -28549731#7 -28549731#6 -28549731#4 -28549731#3 -28549731#2 -28549731#1 -28549731#0"/>
	</vehicle>
	<vehicle id ="87" depart ="10810.27" type ="Car">
		 <route edges= "-58207369#2 -58207369#1 28549731#3 28549731#4 28549731#6 28549731#7 28549731#8 28549731#9 28549731#10 28549731#11 28549731#12"/>
	</vehicle>
	<vehicle id ="88" depart ="10850.48" type ="Car">
		 <route edges= "-28549731#12 -28549731#11 -28549731#10 -28549731#9 -28549731#8 -28549731#7 -28549731#6 -28549731#4 -28549731#3 58207369#1 58207369#2"/>
	</vehicle>
	<vehicle id ="89" depart ="10865.16" type ="Truck">
		 <route edges= "28549731#0 28549731#1 28549731#2 28549731#3 28549731#4 28549731#6 28549731#7 28549731#8 28549731#9 345230672#0 345230672#1"/>
	</vehicle>
	<vehicle id ="90" depart ="10872.76" type ="Car">
		 <route edges= "-345230672#1 -345230672#0 -28549731#9 -28549731#8 -28549731#7 -28549731#6 -28549731#4 -28549731#3 -28549731#2 -28549731#1 -28549731#0"/>
	</vehicle>
	<vehicle id ="91" depart ="10874.93" type ="Truck">
		 <route edges= "-58207369#2 -58207369#1 28549731#3 28549731#4 28549731#6 28549731#7 28549731#8 28549731#9 345230672#0 345230672#1"/>
	</vehicle>
	<vehicle id ="92" depart ="10947.82" type ="Truck">
		 <route edges= "-345230672#1 -345230672#0 -28549731#9 -28549731#8 -28549731#7 -28549731#6 -28549731#4 -28549731#3 58207369#1 58207369#2"/>
	</vehicle>
	<vehicle id ="93" depart ="10991.9" type ="Car">
		 <route edges= "28549731#0 28549731#1 28549731#2 28549731#3 28549731#4 28549731#6 28549731#7 28549731#8 28549731#9 345230672#0 345230672#1"/>
	</vehicle>
	<vehicle id ="94" depart ="11121.4" type ="Car">
		 <route edges= "-345230672#1 -345230672#0 -28549731#9 -28549731#8 -28549731#7 -28549731#6 -28549731#4 -28549731#3 58207369#1 58207369#2"/>
	</vehicle>
	<vehicle id ="95" depart ="11164.26" type ="Car">
		 <route edges= "28549731#0 28549731#1 28549731#2 28549731#3 28549731#4 28549731#6 28549731#7 28549731#8 28549731#9 28549731#10 28549731#11 28549731#12"/>
	</vehicle>
	<vehicle id ="96" depart ="11210.46" type ="Bus">
		 <route edges= "-58207369#2 -58207369#1 28549731#3 28549731#4 28549731#6 28549731#7 28549731#8 28549731#9 28549731#10 28549731#11 28549731#12"/>
	</vehicle>
	<vehicle id ="97" depart ="11230.22" type ="Truck">
		 <route edges= "-58207369#2 -58207369#1 28549731#3 28549731#4 28549731#6 28549731#7 28549731#8 28549731#9 28549731#10 28549731#11 28549731#12"/>
	</vehicle>
	<vehicle id ="98" depart ="11424.96" type ="Car">
		 <route edges= "-58207369#2 -58207369#1 28549731#3 28549731#4 28549731#6 28549731#7 28549731#8 28549731#9 28549731#10 28549731#11 28549731#12"/>
	</vehicle>
	<vehicle id ="99" depart ="11444.15" type ="Car">
		 <route edges= "28549731#0 28549731#1 28549731#2 28549731#3 28549731#4 28549731#6 28549731#7 28549731#8 28549731#9 345230672#0 345230672#1"/>
	</vehicle>
	<vehicle id ="100" depart ="11684.33" type ="Car">
		 <route edges= "-58207369#2 -58207369#1 28549731#3 28549731#4 28549731#6 28549731#7 28549731#8 28549731#9 28549731#10 28549731#11 28549731#12"/>
	</vehicle>
	<vehicle id ="101" depart ="11752.01" type ="Car">
		 <route edges= "-58207369#2 -58207369#1 28549731#3 28549731#4 28549731#6 28549731#7 28549731#8 28549731#9 345230672#0 345230672#1"/>
	</vehicle>
	<vehicle id ="102" depart ="11858.8" type ="Car">
		 <route edges= "-28549731#12 -28549731#11 -28549731#10 -28549731#9 -28549731#8 -28549731#7 -28549731#6 -28549731#4 -28549731#3 -28549731#2 -28549731#1 -28549731#0"/>
	</vehicle>
	<vehicle id ="103" depart ="11878.08" type ="Car">
		 <route edges= "28549731#0 28549731#1 28549731#2 28549731#3 28549731#4 28549731#6 28549731#7 28549731#8 28549731#9 345230672#0 345230672#1"/>
	</vehicle>
	<vehicle id ="104" depart ="11879.97" type ="Bus">
		 <route edges= "-28549731#12 -28549731#11 -28549731#10 -28549731#9 -28549731#8 -28549731#7 -28549731#6 -28549731#4 -28549731#3 -28549731#2 -28549731#1 -28549731#0"/>
	</vehicle>
	<vehicle id ="105" depart ="11933.65" type ="Bus">
		 <route edges= "28549731#0 28549731#1 28549731#2 28549731#3 28549731#4 28549731#6 28549731#7 28549731#8 28549731#9 28549731#10 28549731#11 28549731#12"/>
	</vehicle>
	<vehicle id ="106" depart ="11953.56" type ="Truck">
		 <route edges= "-28549731#12 -28549731#11 -28549731#10 -28549731#9 -28549731#8 -28549731#7 -28549731#6 -28549731#4 -28549731#3 -28549731#2 -28549731#1 -28549731#0"/>
	</vehicle>
	<vehicle id ="107" depart ="11961.48" type ="Car">
		 <route edges= "-58207369#2 -58207369#1 28549731#3 28549731#4 28549731#6 28549731#7 28549731#8 28549731#9 345230672#0 345230672#1"/>
	</vehicle>
	<vehicle id ="108" depart ="12001.1" type ="Truck">
		 <route edges= "-28549731#12 -28549731#11 -28549731#10 -28549731#9 -28549731#8 -28549731#7 -28549731#6 -28549731#4 -28549731#3 58207369#1 58207369#2"/>
	</vehicle>
	<vehicle id ="109" depart ="12012.46" type ="Car">
		 <route edges= "-58207369#2 -58207369#1 28549731#3 28549731#4 28549731#6 28549731#7 28549731#8 28549731#9 28549731#10 28549731#11 28549731#12"/>
	</vehicle>
	<vehicle id ="110" depart ="12043.87" type ="Bus">
		 <route edges= "-28549731#12 -28549731#11 -28549731#10 -28549731#9 -28549731#8 -28549731#7 -28549731#6 -28549731#4 -28549731#3 58207369#1 58207369#2"/>
	</vehicle>
	<vehicle id ="111" depart ="12080.46" type ="Car">
		 <route edges= "-58207369#2 -58207369#1 28549731#3 28549731#4 28549731#6 28549731#7 28549731#8 28549731#9 345230672#0 345230672#1"/>
	</vehicle>
	<vehicle id ="112" depart ="12088.48" type ="Truck">
		 <route edges= "-28549731#12 -28549731#11 -28549731#10 -28549731#9 -28549731#8 -28549731#7 -28549731#6 -28549731#4 -28549731#3 -28549731#2 -28549731#1 -28549731#0"/>
	</vehicle>
	<vehicle id ="113" depart ="12129.22" type ="Truck">
		 <route edges= "-58207369#2 -58207369#1 28549731#3 28549731#4 28549731#6 28549731#7 28549731#8 28549731#9 28549731#10 28549731#11 28549731#12"/>
	</vehicle>
	<vehicle id ="114" depart ="12282.49" type ="Truck">
		 <route edges= "-345230672#1 -345230672#0 -28549731#9 -28549731#8 -28549731#7 -28549731#6 -28549731#4 -28549731#3 -28549731#2 -28549731#1 -28549731#0"/>
	</vehicle>
	<vehicle id ="115" depart ="12286.96" type ="Car">
		 <route edges= "28549731#0 28549731#1 28549731#2 28549731#3 28549731#4 28549731#6 28549731#7 28549731#8 28549731#9 28549731#10 28549731#11 28549731#12"/>
	</vehicle>
	<vehicle id ="116" depart ="12400.12" type ="Car">
		 <route edges= "-28549731#12 -28549731#11 -28549731#10 -28549731#9 -28549731#8 -28549731#7 -28549731#6 -28549731#4 -28549731#3 -28549731#2 -28549731#1 -28549731#0"/>
	</vehicle>
	<vehicle id ="117" depart ="12482.69" type ="Car">
		 <route edges= "-28549731#12 -28549731#11 -28549731#10 -28549731#9 -28549731#8 -28549731#7 -28549731#6 -28549731#4 -28549731#3 58207369#1 58207369#2"/>
	</vehicle>
	<vehicle id ="118" depart ="12603.63" type ="Truck">
		 <route edges= "-58207369#2 -58207369#1 28549731#3 28549731#4 28549731#6 28549731#7 28549731#8 28549731#9 345230672#0 345230672#1"/>
	</vehicle>
	<vehicle id ="119" depart ="12655.3" type ="Truck">
		 <route edges= "-345230672#1 -345230672#0 -28549731#9 -28549731#8 -28549731#7 -28549731#6 -28549731#4 -28549731#3 -28549731#2 -28549731#1 -28549731#0"/>
	</vehicle>
	<vehicle id ="120" depart ="12688.21" type ="Truck">
		 <route edges= "28549731#0 28549731#1 28549731#2 28549731#3 28549731#4 28549731#6 28549731#7 28549731#8 28549731#9 345230672#0 345230672#1"/>
	</vehicle>
	<vehicle id ="121" depart ="12710.48" type ="Bus">
		 <route edges= "-345230672#1 -345230672#0 -28549731#9 -28549731#8 -28549731#7 -28549731#6 -28549731#4 -28549731#3 -28549731#2 -28549731#1 -28549731#0"/>
	</vehicle>
	<vehicle id ="122" depart ="12740.44" type ="Car">
		 <route edges= "-58207369#2 -58207369#1 28549731#3 28549731#4 28549731#6 28549731#7 28549731#8 28549731#9 345230672#0 345230672#1"/>
	</vehicle>
	<vehicle id ="123" depart ="12753.39" type ="Truck">
		 <route edges= "-28549731#12 -28549731#11 -28549731#10 -28549731#9 -28549731#8 -28549731#7 -28549731#6 -28549731#4 -28549731#3 -28549731#2 -28549731#1 -28549731#0"/>
	</vehicle>
	<vehicle id ="124" depart ="12795.41" type ="Bus">
		 <route edges= "28549731#0 28549731#1 28549731#2 28549731#3 28549731#4 28549731#6 28549731#7 28549731#8 28549731#9 345230672#0 345230672#1"/>
	</vehicle>
	<vehicle id ="125" depart ="12797.58" type ="Car">
		 <route edges= "-28549731#12 -28549731#11 -28549731#10 -28549731#9 -28549731#8 -28549731#7 -28549731#6 -28549731#4 -28549731#3 -28549731#2 -28549731#1 -28549731#0"/>
	</vehicle>
	<vehicle id ="126" depart ="12811.88" type ="Car">
		 <route edges= "28549731#0 28549731#1 28549731#2 28549731#3 28549731#4 28549731#6 28549731#7 28549731#8 28549731#9 345230672#0 345230672#1"/>
	</vehicle>
	<vehicle id ="127" depart ="12822.32" type ="Car">
		 <route edges= "-345230672#1 -345230672#0 -28549731#9 -28549731#8 -28549731#7 -28549731#6 -28549731#4 -28549731#3 58207369#1 58207369#2"/>
	</vehicle>
	<vehicle id ="128" depart ="12840.05" type ="Car">
		 <route edges= "-28549731#12 -28549731#11 -28549731#10 -28549731#9 -28549731#8 -28549731#7 -28549731#6 -28549731#4 -28549731#3 -28549731#2 -28549731#1 -28549731#0"/>
	</vehicle>
	<vehicle id ="129" depart ="12963.08" type ="Truck">
		 <route edges= "-345230672#1 -345230672#0 -28549731#9 -28549731#8 -28549731#7 -28549731#6 -28549731#4 -28549731#3 58207369#1 58207369#2"/>
	</vehicle>
	<vehicle id ="130" depart ="12992.96" type ="Car">
		 <route edges= "-28549731#12 -28549731#11 -28549731#10 -28549731#9 -28549731#8 -28549731#7 -28549731#6 -28549731#4 -28549731#3 -28549731#2 -28549731#1 -28549731#0"/>
	</vehicle>
	<vehicle id ="131" depart ="12995.37" type ="Car">
		 <route edges= "-345230672#1 -345230672#0 -28549731#9 -28549731#8 -28549731#7 -28549731#6 -28549731#4 -28549731#3 58207369#1 58207369#2"/>