<?xml version='1.0' encoding='UTF-8'?>
<routes xmlns:xsi='http://www.w3.org/2001/XMLSchema-instance' xsi:noNamespaceSchemaLocation='http://sumo.dlr.de/xsd/routes_file.xsd'>
	<vType id='Car' emissionClass='HBEFA3/PC_G_EU4' accel='3.0' decel='6.0' length='5.0' minGap='2.5' maxSpeed='50.0'/>
	<vType id='Bus' emissionClass='HBEFA3/LDV_D_EU4' accel='2.0' decel='5.0' length='7.0' minGap='3.5' maxSpeed='40.0' color='red' guiShape='bus'/>
	<vType id='Truck' emissionClass='HBEFA3/HDV_D_EU4' accel='1.0' decel='5.0' length='7.0' minGap='3.5' maxSpeed='40.0' color='blue' guiShape='truck'/>
	<vType id='Motor_Bike' emissionClass='HBEFA3/PC_G_EU4' accel='2.0' decel='4.0' length='3.0' minGap='2.5' maxSpeed='50.0' color='165,105,189' guiShape='motorcycle'/>
	<vType id='electricCar' emissionClass='Zero' accel='3.0' decel='6.0' length='5.0' minGap='2.5' maxSpeed='50.0' color='green'>
		 <param key='has.battery.device' value='true'/> 
		 <param key='device.battery.capacity' value='2000'/> 
		 <param key='maximumPower' value='1000'/> 
		 <param key='frontSurfaceArea' value='5'/> 
		 <param key='airDragCoefficient' value='0.6'/> 
		 <param key='rotatingMass' value='100'/> 
		 <param key='radialDragCoefficient' value='0.5'/> 
		 <param key='rollDragCoefficient' value='0.01'/> 
		 <param key='constantPowerIntake' value='100'/> 
		 <param key='propulsionEfficiency' value='0.9'/> 
		 <param key='recuperationEfficiency' value='0.9'/> 
		 <param key='stoppingThreshold' value='0.1'/> 
		 <param key='device.battery.maximumChargeRate' value='150000'/> 
	</vType>
	<vehicle id ="1" depart ="985.45" type ="Bus">
		 <route edges= "28549731#0 28549731#1 28549731#2 28549731#3 28549731#4 28549731#6 28549731#7 28549731#8 28549731#9 345230672#0 345230672#1"/>
	</vehicle>
	<vehicle id ="2" depart ="1144.4" type ="Car">
		 <route edges= "-345230672#1 -345230672#0 -28549731#9 -28549731#8 -28549731#7 -28549731#6 -28549731#4 -28549731#3 -28549731#2 -28549731#1 -28549731#0"/>
	</vehicle>
	<vehicle id ="3" depart ="1519.66" type ="Car">
		 <route edges= "-58207369#2 -58207369#1 28549731#3 28549731#4 28549731#6 28549731#7 28549731#8 28549731#9 28549731#10 28549731#11 28549731#12"/>
	</vehicle>
	<vehicle id ="4" depart ="1565.97" type ="Car">
		 <route edges= "-345230672#1 -345230672#0 -28549731#9 -28549731#8 -28549731#7 -28549731#6 -28549731#4 -28549731#3 -28549731#2 -28549731#1 -28549731#0"/>
	</vehicle>
	<vehicle id ="5" depart ="1569.91" type ="Car">
		 <route edges= "28549731#0 28549731#1 28549731#2 28549731#3 28549731#4 28549731#6 28549731#7 28549731#8 28549731#9 28549731#10 28549731#11 28549731#12"/>
	</vehicle>
	<vehicle id ="6" depart ="1631.04" type ="Car">
		 <route edges= "-345230672#1 -345230672#0 -28549731#9 -28549731#8 -28549731#7 -28549731#6 -28549731#4 -28549731#3 -28549731#2 -28549731#1 -28549731#0"/>
	</vehicle>
	<vehicle id ="7" depart ="1699.05" type ="Car">
		 <route edges= "28549731#0 28549731#1 28549731#2 28549731#3 28549731#4 28549731#6 28549731#7 28549731#8 28549731#9 28549731#10 28549731#11 28549731#12"/>
	</vehicle>
	<vehicle id ="8" depart ="1703.63" type ="Car">
		 <route edges= "-28549731#12 -28549731#11 -28549731#10 -28549731#9 -28549731#8 -28549731#7 -28549731#6 -28549731#4 -28549731#3 58207369#1 58207369#2"/>
	</vehicle>
	<vehicle id ="9" depart ="1736.18" type ="Car">
		 <route edges= "-345230672#1 -345230672#0 -28549731#9 -28549731#8 -28549731#7 -28549731#6 -28549731#4 -28549731#3 -28549731#2 -28549731#1 -28549731#0"/>
	</vehicle>
	<vehicle id ="10" depart ="1780.27" type ="Car">
		 <route edges= "-345230672#1 -345230672#0 -28549731#9 -28549731#8 -28549731#7 -28549731#6 -28549731#4 -28549731#3 58207369#1 58207369#2"/>
	</vehicle>
	<vehicle id ="11" depart ="1979.37" type ="Car">
		 <route edges= "28549731#0 28549731#1 28549731#2 28549731#3 28549731#4 28549731#6 28549731#7 28549731#8 28549731#9 345230672#0 345230672#1"/>
	</vehicle>
	<vehicle id ="12" depart ="2253.87" type ="Car">
		 <route edges= "-345230672#1 -345230672#0 -28549731#9 -28549731#8 -28549731#7 -28549731#6 -28549731#4 -28549731#3 58207369#1 58207369#2"/>
	</vehicle>
	<vehicle id ="13" depart ="2829.21" type ="Car">
		 <route edges= "-345230672#1 -345230672#0 -28549731#9 -28549731#8 -28549731#7 -28549731#6 -28549731#4 -28549731#3 58207369#1 58207369#2"/>
	</vehicle>
	<vehicle id ="14" depart ="3076.87" type ="Car">
		 <route edges= "-28549731#12 -28549731#11 -28549731#10 -28549731#9 -28549731#8 -28549731#7 -28549731#6 -28549731#4 -28549731#3 58207369#1 58207369#2"/>
	</vehicle>
	<vehicle id ="15" depart ="3767.22" type ="Truck">
		 <route edges= "28549731#0 28549731#1 28549731#2 28549731#3 28549731#4 28549731#6 28549731#7 28549731#8 28549731#9 28549731#10 28549731#11 28549731#12"/>
	</vehicle>
	<vehicle id ="16" depart ="4084.16" type ="Bus">
		 <route edges= "-58207369#2 -58207369#1 28549731#3 28549731#4 28549731#6 28549731#7 28549731#8 28549731#9 28549731#10 28549731#11 28549731#12"/>
	</vehicle>
	<vehicle id ="17" depart ="4539.17" type ="Bus">
		 <route edges= "-28549731#12 -28549731#11 -28549731#10 -28549731#9 -28549731#8 -28549731#7 -28549731#6 -28549731#4 -28549731#3 -28549731#2 -28549731#1 -28549731#0"/>
	</vehicle>
	<vehicle id ="18" depart ="5693.57" type ="Truck">
		 <route edges= "-58207369#2 -58207369#1 28549731#3 28549731#4 28549731#6 28549731#7 28549731#8 28549731#9 28549731#10 28549731#11 28549731#12"/>
	</vehicle>
	<vehicle id ="19" depart ="5876.43" type ="Car">
		 <route edges= "-28549731#12 -28549731#11 -28549731#10 -28549731#9 -28549731#8 -28549731#7 -28549731#6 -28549731#4 -28549731#3 58207369#1 58207369#2"/>
	</vehicle>
	<vehicle id ="20" depart ="5920.39" type ="Bus">
		 <route edges= "28549731#0 28549731#1 28549731#2 28549731#3 28549731#4 28549731#6 28549731#7 28549731#8 28549731#9 345230672#0 345230672#1"/>
	</vehicle>
	<vehicle id ="21" depart ="5953.27" type ="Bus">
		 <route edges= "-345230672#1 -345230672#0 -28549731#9 -28549731#8 -28549731#7 -28549731#6 -28549731#4 -28549731#3 58207369#1 58207369#2"/>
	</vehicle>
	<vehicle id ="22" depart ="6065.6" type ="Truck">
		 <route edges= "-345230672#1 -345230672#0 -28549731#9 -28549731#8 -28549731#7 -28549731#6 -28549731#4 -28549731#3 58207369#1 58207369#2"/>
	</vehicle>
	<vehicle id ="23" depart ="6079.96" type ="Car">
		 <route edges= "-345230672#1 -345230672#0 -28549731#9 -28549731#8 -28549731#7 -28549731#6 -28549731#4 -28549731#3 -28549731#2 -28549731#1 -28549731#0"/>
	</vehicle>
	<vehicle id ="24" depart ="6145.4" type ="Car">
		 <route edges= "-345230672#1 -345230672#0 -28549731#9 -28549731#8 -28549731#7 -28549731#6 -28549731#4 -28549731#3 58207369#1 58207369#2"/>
	</vehicle>
	<vehicle id ="25" depart ="6490.13" type ="Car">
		 <route edges= "-58207369#2 -58207369#1 28549731#3 28549731#4 28549731#6 28549731#7 28549731#8 28549731#9 28549731#10 28549731#11 28549731#12"/>
	</vehicle>
	<vehicle id ="26" depart ="6716.79" type ="Car">
		 <route edges= "-345230672#1 -345230672#0 -28549731#9 -28549731#8 -28549731#7 -28549731#6 -28549731#4 -28549731#3 58207369#1 58207369#2"/>
	</vehicle>
	<vehicle id ="27" depart ="6853.25" type ="Car">
		 <route edges= "-345230672#1 -345230672#0 -28549731#9 -28549731#8 -28549731#7 -28549731#6 -28549731#4 -28549731#3 58207369#1 58207369#2"/>
	</vehicle>
	<vehicle id ="28" depart ="6941.65" type ="Car">
		 <route edges= "-28549731#12 -28549731#11 -28549731#10 -28549731#9 -28549731#8 -28549731#7 -28549731#6 -28549731#4 -28549731#3 58207369#1 58207369#2"/>
	</vehicle>
	<vehicle id ="29" depart ="7504.78" type ="Car">
		 <route edges= "28549731#0 28549731#1 28549731#2 28549731#3 28549731#4 28549731#6 28549731#7 28549731#8 28549731#9 345230672#0 345230672#1"/>
	</vehicle>
	<vehicle id ="30" depart ="7754.05" type ="Car">
		 <route edges= "-58207369#2 -58207369#1 28549731#3 28549731#4 28549731#6 28549731#7 28549731#8 28549731#9 28549731#10 28549731#11 28549731#12"/>
	</vehicle>
	<vehicle id ="31" depart ="7920.7" type ="Truck">
		 <route edges= "28549731#0 28549731#1 28549731#2 28549731#3 28549731#4 28549731#6 28549731#7 28549731#8 28549731#9 345230672#0 345230672#1"/>
	</vehicle>
	<vehicle id ="32" depart ="8038.32" type ="Bus">
		 <route edges= "-58207369#2 -58207369#1 28549731#3 28549731#4 28549731#6 28549731#7 28549731#8 28549731#9 345230672#0 345230672#1"/>
	</vehicle>
	<vehicle id ="33" depart ="8081.24" type ="Bus">
		 <route edges= "-58207369#2 -58207369#1 28549731#3 28549731#4 28549731#6 28549731#7 28549731#8 28549731#9 345230672#0 345230672#1"/>
	</vehicle>
	<vehicle id ="34" depart ="8113.13" type ="Car">
		 <route edges= "28549731#0 28549731#1 28549731#2 28549731#3 28549731#4 28549731#6 28549731#7 28549731#8 28549731#9 345230672#0 345230672#1"/>
	</vehicle>
	<vehicle id ="35" depart ="8227.1" type ="Car">
		 <route edges= "-345230672#1 -345230672#0 -28549731#9 -28549731#8 -28549731#7 -28549731#6 -28549731#4 -28549731#3 58207369#1 58207369#2"/>
	</vehicle>
	<vehicle id ="36" depart ="8229.02" type ="Car">
		 <route edges= "28549731#0 28549731#1 28549731#2 28549731#3 28549731#4 28549731#6 28549731#7 28549731#8 28549731#9 345230672#0 345230672#1"/>
	</vehicle>
	<vehicle id ="37" depart ="8324.55" type ="Truck">
		 <route edges= "-28549731#12 -28549731#11 -28549731#10 -28549731#9 -28549731#8 -28549731#7 -28549731#6 -28549731#4 -28549731#3 -28549731#2 -28549731#1 -28549731#0"/>
	</vehicle>
	<vehicle id ="38" depart ="8645.36" type ="Car">
		 <route edges= "-58207369#2 -58207369#1 28549731#3 28549731#4 28549731#6 28549731#7 28549731#8 28549731#9 345230672#0 345230672#1"/>
	</vehicle>
	<vehicle id ="39" depart ="8680.23" type ="Car">
		 <route edges= "-345230672#1 -345230672#0 -28549731#9 -28549731#8 -28549731#7 -28549731#6 -28549731#4 -28549731#3 58207369#1 58207369#2"/>
	</vehicle>
	<vehicle id ="40" depart ="8793.68" type ="Car">
		 <route edges= "28549731#0 28549731#1 28549731#2 28549731#3 28549731#4 28549731#6 28549731#7 28549731#8 28549731#9 28549731#10 28549731#11 28549731#12"/>
	</vehicle>
	<vehicle id ="41" depart ="8821.98" type ="Car">
		 <route edges= "-28549731#12 -28549731#11 -28549731#10 -28549731#9 -28549731#8 -28549731#7 -28549731#6 -28549731#4 -28549731#3 58207369#1 58207369#2"/>
	</vehicle>
	<vehicle id ="42" depart ="8911.52" type ="Car">
		 <route edges= "-58207369#2 -58207369#1 28549731#3 28549731#4 28549731#6 28549731#7 28549731#8 28549731#9 28549731#10 28549731#11 28549731#12"/>
	</vehicle>
	<vehicle id ="43" depart ="8953.26" type ="Car">
		 <route edges= "-58207369#2 -58207369#1 28549731#3 28549731#4 28549731#6 28549731#7 28549731#8 28549731#9 345230672#0 345230672#1"/>
	</vehicle>
	<vehicle id ="44" depart ="9095.16" type ="Car">
		 <route edges= "28549731#0 28549731#1 28549731#2 28549731#3 28549731#4 28549731#6 28549731#7 28549731#8 28549731#9 345230672#0 345230672#1"/>
	</vehicle>
	<vehicle id ="45" depart ="9147.38" type ="Bus">
		 <route edges= "-345230672#1 -345230672#0 -28549731#9 -28549731#8 -28549731#7 -28549731#6 -28549731#4 -28549731#3 -28549731#2 -28549731#1 -28549731#0"/>
	</vehicle>
	<vehicle id ="46" depart ="9150.18" type ="Car">
		 <route edges= "28549731#0 28549731#1 28549731#2 28549731#3 28549731#4 28549731#6 28549731#7 28549731#8 28549731#9 28549731#10 28549731#11 28549731#12"/>
	</vehicle>
	<vehicle id ="47" depart ="9157.27" type ="Truck">
		 <route edges= "-345230672#1 -345230672#0 -28549731#9 -28549731#8 -28549731#7 -28549731#6 -28549731#4 -28549731#3 -28549731#2 -28549731#1 -28549731#0"/>
	</vehicle>
	<vehicle id ="48" depart ="9166.93" type ="Truck">
		 <route edges= "28549731#0 28549731#1 28549731#2 28549731#3 28549731#4 28549731#6 28549731#7 28549731#8 28549731#9 28549731#10 28549731#11 28549731#12"/>
	</vehicle>
	<vehicle id ="49" depart ="9191.84" type ="Bus">
		 <route edges= "-28549731#12 -28549731#11 -28549731#10 -28549731#9 -28549731#8 -28549731#7 -28549731#6 -28549731#4 -28549731#3 -28549731#2 -28549731#1 -28549731#0"/>
	</vehicle>
	<vehicle id ="50" depart ="9203.51" type ="Car">
		 <route edges= "28549731#0 28549731#1 28549731#2 28549731#3 28549731#4 28549731#6 28549731#7 28549731#8 28549731#9 345230672#0 345230672#1"/>
	</vehicle>
	<vehicle id ="51" depart ="9290.12" type ="Bus">
		 <route edges= "-28549731#12 -28549731#11 -28549731#10 -28549731#9 -28549731#8 -28549731#7 -28549731#6 -28549731#4 -28549731#3 -28549731#2 -28549731#1 -28549731#0"/>
	</vehicle>
	<vehicle id ="52" depart ="9379.73" type ="Truck">
		 <route edges= "28549731#0 28549731#1 28549731#2 28549731#3 28549731#4 28549731#6 28549731#7 28549731#8 28549731#9 28549731#10 28549731#11 28549731#12"/>
	</vehicle>
	<vehicle id ="53" depart ="9579.26" type ="Car">
		 <route edges= "-345230672#1 -345230672#0 -28549731#9 -28549731#8 -28549731#7 -28549731#6 -28549731#4 -28549731#3 58207369#1 58207369#2"/>
	</vehicle>
	<vehicle id ="54" depart ="9596.67" type ="Truck">
		 <route edges= "28549731#0 28549731#1 28549731#2 28549731#3 28549731#4 28549731#6 28549731#7 28549731#8 28549731#9 28549731#10 28549731#11 28549731#12"/>
	</vehicle>
	<vehicle id ="55" depart ="9702.28" type ="Car">
		 <route edges= "-345230672#1 -345230672#0 -28549731#9 -28549731#8 -28549731#7 -28549731#6 -28549731#4 -28549731#3 -28549731#2 -28549731#1 -28549731#0"/>
	</vehicle>
	<vehicle id ="56" depart ="9740.39" type ="Car">
		 <route edges= "28549731#0 28549731#1 28549731#2 28549731#3 28549731#4 28549731#6 28549731#7 28549731#8 28549731#9 345230672#0 345230672#1"/>
	</vehicle>
	<vehicle id ="57" depart ="9804.69" type ="Car">
		 <route edges= "-345230672#1 -345230672#0 -28549731#9 -28549731#8 -28549731#7 -28549731#6 -28549731#4 -28549731#3 58207369#1 58207369#2"/>
	</vehicle>
	<vehicle id ="58" depart ="9813.91" type ="Car">
		 <route edges= "28549731#0 28549731#1 28549731#2 28549731#3 28549731#4 28549731#6 28549731#7 28549731#8 28549731#9 28549731#10 28549731#11 28549731#12"/>
	</vehicle>
	<vehicle id ="59" depart ="9887.61" type ="Car">
		 <route edges= "28549731#0 28549731#1 28549731#2 28549731#3 28549731#4 28549731#6 28549731#7 28549731#8 28549731#9 345230672#0 345230672#1"/>
	</vehicle>
	<vehicle id ="60" depart ="10071.47" type ="Car">
		 <route edges= "28549731#0 28549731#1 28549731#2 28549731#3 28549731#4 28549731#6 28549731#7 28549731#8 28549731#9 345230672#0 345230672#1"/>
	</vehicle>
	<vehicle id ="61" depart ="10108.47" type ="Car">
		 <route edges= "-345230672#1 -345230672#0 -28549731#9 -28549731#8 -28549731#7 -28549731#6 -28549731#4 -28549731#3 58207369#1 58207369#2"/>
	</vehicle>
	<vehicle id ="62" depart ="10322.93" type ="Truck">
		 <route edges= "28549731#0 28549731#1 28549731#2 28549731#3 28549731#4 28549731#6 28549731#7 28549731#8 28549731#9 28549731#10 28549731#11 28549731#12"/>
	</vehicle>
	<vehicle id ="63" depart ="10346.28" type ="Truck">
		 <route edges= "-345230672#1 -345230672#0 -28549731#9 -28549731#8 -28549731#7 -28549731#6 -28549731#4 -28549731#3 -28549731#2 -28549731#1 -28549731#0"/>
	</vehicle>
	<vehicle id ="64" depart ="10416.05" type ="Car">
		 <route edges= "28549731#0 28549731#1 28549731#2 28549731#3 28549731#4 28549731#6 28549731#7 28549731#8 28549731#9 345230672#0 345230672#1"/>
	</vehicle>
	<vehicle id ="65" depart ="10442.63" type ="Car">
		 <route edges= "-345230672#1 -345230672#0 -28549731#9 -28549731#8 -28549731#7 -28549731#6 -28549731#4 -28549731#3 -28549731#2 -28549731#1 -28549731#0"/>
	</vehicle>
	<vehicle id ="66" depart ="10454.4" type ="Car">
		 <route edges= "28549731#0 28549731#1 28549731#2 28549731#3 28549731#4 28549731#6 28549731#7 28549731#8 28549731#9 345230672#0 345230672#1"/>
	</vehicle>
	<vehicle id ="67" depart ="10474.25" type ="Truck">
		 <route edges= "-345230672#1 -345230672#0 -28549731#9 -28549731#8 -28549731#7 -28549731#6 -28549731#4 -28549731#3 58207369#1 58207369#2"/>
	</vehicle>
	<vehicle id ="68" depart ="10541.94" type ="Car">
		 <route edges= "28549731#0 28549731#1 28549731#2 28549731#3 28549731#4 28549731#6 28549731#7 28549731#8 28549731#9 345230672#0 345230672#1"/>
	</vehicle>
	<vehicle id ="69" depart ="10545.6" type ="Car">
		 <route edges= "-28549731#12 -28549731#11 -28549731#10 -28549731#9 -28549731#8 -28549731#7 -28549731#6 -28549731#4 -28549731#3 -28549731#2 -28549731#1 -28549731#0"/>
	</vehicle>
	<vehicle id ="70" depart ="10556.75" type ="Bus">
		 <route edges= "28549731#0 28549731#1 28549731#2 28549731#3 28549731#4 28549731#6 28549731#7 28549731#8 28549731#9 345230672#0 345230672#1"/>
	</vehicle>
	<vehicle id ="71" depart ="10609.21" type ="Car">
		 <route edges= "-345230672#1 -345230672#0 -28549731#9 -28549731#8 -28549731#7 -28549731#6 -28549731#4 -28549731#3 -28549731#2 -28549731#1 -28549731#0"/>
	</vehicle>
	<vehicle id ="72" depart ="10628.54" type ="Car">
		 <route edges= "28549731#0 28549731#1 28549731#2 28549731#3 28549731#4 28549731#6 28549731#7 28549731#8 28549731#9 345230672#0 345230672#1"/>
	</vehicle>
	<vehicle id ="73" depart ="10642.93" type ="Car">
		 <route edges= "-345230672#1 -345230672#0 -28549731#9 -28549731#8 -28549731#7 -28549731#6 -28549731#4 -28549731#3 -28549731#2 -28549731#1 -28549731#0"/>
	</vehicle>
	<vehicle id ="74" depart ="10689.26" type ="Car">
		 <route edges= "-58207369#2 -58207369#1 28549731#3 28549731#4 28549731#6 28549731#7 28549731#8 28549731#9 28549731#10 28549731#11 28549731#12"/>
	</vehicle>
	<vehicle id ="75" depart ="10691.98" type ="Car">
		 <route edges= "-28549731#12 -28549731#11 -28549731#10 -28549731#9 -28549731#8 -28549731#7 -28549731#6 -28549731#4 -28549731#3 -28549731#2 -28549731#1 -28549731#0"/>
	</vehicle>
	<vehicle id ="76" depart ="10698.01" type ="Truck">
		 <route edges= "28549731#0 28549731#1 28549731#2 28549731#3 28549731#4 28549731#6 28549731#7 28549731#8 28549731#9 28549731#10 28549731#11 28549731#12"/>
	</vehicle>
	<vehicle id ="77" depart ="10761.45" type ="Car">
		 <route edges= "-58207369#2 -58207369#1 28549731#3 28549731#4 28549731#6 28549731#7 28549731#8 28549731#9 28549731#10 28549731#11 28549731#12"/>
	</vehicle>
	<vehicle id ="78" depart ="10961.29" type ="Car">
		 <route edges= "28549731#0 28549731#1 28549731#2 28549731#3 28549731#4 28549731#6 28549731#7 28549731#8 28549731#9 345230672#0 345230672#1"/>
	</vehicle>
	<vehicle id ="79" depart ="10975.49" type ="Car">
		 <route edges= "-28549731#12 -28549731#11 -28549731#10 -28549731#9 -28549731#8 -28549731#7 -28549731#6 -28549731#4 -28549731#3 -28549731#2 -28549731#1 -28549731#0"/>
	</vehicle>
	<vehicle id ="80" depart ="10992.16" type ="Car">
		 <route edges= "-58207369#2 -58207369#1 28549731#3 28549731#4 28549731#6 28549731#7 28549731#8 28549731#9 345230672#0 345230672#1"/>
	</vehicle>
	<vehicle id ="81" depart ="11037.5" type ="Car">
		 <route edges= "-345230672#1 -345230672#0 -28549731#9 -28549731#8 -28549731#7 -28549731#6 -28549731#4 -28549731#3 -28549731#2 -28549731#1 -28549731#0"/>
	</vehicle>
	<vehicle id ="82" depart ="11044.2" type ="Truck">
		 <route edges= "-58207369#2 -58207369#1 28549731#3 28549731#4 28549731#6 28549731#7 28549731#8 28549731#9 28549731#10 28549731#11 28549731#12"/>
	</vehicle>
	<vehicle id ="83" depart ="11048.81" type ="Car">
		 <route edges= "-28549731#12 -28549731#11 -28549731#10 -28549731#9 -28549731#8 -28549731#7 -28549731#6 -28549731#4 -28549731#3 -28549731#2 -28549731#1 -28549731#0"/>
	</vehicle>
	<vehicle id ="84" depart ="11062.7" type ="Car">
		 <route edges= "-58207369#2 -58207369#1 28549731#3 28549731#4 28549731#6 28549731#7 28549731#8 28549731#9 28549731#10 28549731#11 28549731#12"/>
	</vehicle>
	<vehicle id ="85" depart ="11119.16" type ="Bus">
		 <route edges= "-345230672#1 -345230672#0 -28549731#9 -28549731#8 -28549731#7 -28549731#6 -28549731#4 -28549731#3 58207369#1 58207369#2"/>
	</vehicle>
	<vehicle id ="86" depart ="11199.59" type ="Car">
		 <route edges= "-58207369#2 -58207369#1 28549731#3 28549731#4 28549731#6 28549731#7 28549731#8 28549731#9 345230672#0 345230672#1"/>
	</vehicle>
	<vehicle id ="87" depart ="11243.49" type ="Car">
		 <route edges= "28549731#0 28549731#1 28549731#2 28549731#3 28549731#4 28549731#6 28549731#7 28549731#8 28549731#9 28549731#10 28549731#11 28549731#12"/>
	</vehicle>
	<vehicle id ="88" depart ="11306.83" type ="Car">
		 <route edges= "-58207369#2 -58207369#1 28549731#3 28549731#4 28549731#6 28549731#7 28549731#8 28549731#9 345230672#0 345230672#1"/>
	</vehicle>
	<vehicle id ="89" depart ="11345.7" type ="Truck">
		 <route edges= "28549731#0 28549731#1 28549731#2 28549731#3 28549731#4 28549731#6 28549731#7 28549731#8 28549731#9 345230672#0 345230672#1"/>
	</vehicle>
	<vehicle id ="90" depart ="11358.13" type ="Car">
		 <route edges= "28549731#0 28549731#1 28549731#2 28549731#3 28549731#4 28549731#6 28549731#7 28549731#8 28549731#9 345230672#0 345230672#1"/>
	</vehicle>
	<vehicle id ="91" depart ="11470.02" type ="Car">
		 <route edges= "-58207369#2 -58207369#1 28549731#3 28549731#4 28549731#6 28549731#7 28549731#8 28549731#9 28549731#10 28549731#11 28549731#12"/>
	</vehicle>
	<vehicle id ="92" depart ="11541.84" type ="Car">
		 <route edges= "28549731#0 28549731#1 28549731#2 28549731#3 28549731#4 28549731#6 28549731#7 28549731#8 28549731#9 345230672#0 345230672#1"/>
	</vehicle>
	<vehicle id ="93" depart ="11633.38" type ="Car">
		 <route edges= "-58207369#2 -58207369#1 28549731#3 28549731#4 28549731#6 28549731#7 28549731#8 28549731#9 28549731#10 28549731#11 28549731#12"/>
	</vehicle>
	<vehicle id ="94" depart ="11861.37" type ="Car">
		 <route edges= "28549731#0 28549731#1 28549731#2 28549731#3 28549731#4 28549731#6 28549731#7 28549731#8 28549731#9 345230672#0 345230672#1"/>
	</vehicle>
	<vehicle id ="95" depart ="11874.54" type ="Car">
		 <route edges= "-28549731#12 -28549731#11 -28549731#10 -28549731#9 -28549731#8 -28549731#7 -28549731#6 -28549731#4 -28549731#3 58207369#1 58207369#2"/>
	</vehicle>
	<vehicle id ="96" depart ="11903.77" type ="Truck">
		 <route edges= "28549731#0 28549731#1 28549731#2 28549731#3 28549731#4 28549731#6 28549731#7 28549731#8 28549731#9 28549731#10 28549731#11 28549731#12"/>
	</vehicle>
	<vehicle id ="97" depart ="11924.42" type ="Car">
		 <route edges= "-28549731#12 -28549731#11 -28549731#10 -28549731#9 -28549731#8 -28549731#7 -28549731#6 -28549731#4 -28549731#3 -28549731#2 -28549731#1 -28549731#0"/>
	</vehicle>
	<vehicle id ="98" depart ="11954.09" type ="Truck">
		 <route edges= "28549731#0 28549731#1 28549731#2 28549731#3 28549731#4 28549731#6 28549731#7 28549731#8 28549731#9 345230672#0 345230672#1"/>
	</vehicle>
	<vehicle id ="99" depart ="11959.16" type ="Car">
		 <route edges= "-28549731#12 -28549731#11 -28549731#10 -28549731#9 -28549731#8 -28549731#7 -28549731#6 -28549731#4 -28549731#3 58207369#1 58207369#2"/>
	</vehicle>
	<vehicle id ="100" depart ="12018.0" type ="Car">
		 <route edges= "-58207369#2 -58207369#1 28549731#3 28549731#4 28549731#6 28549731#7 28549731#8 28549731#9 345230672#0 345230672#1"/>
	</vehicle>
	<vehicle id ="101" depart ="12047.9" type ="Car">
		 <route edges= "-345230672#1 -345230672#0 -28549731#9 -28549731#8 -28549731#7 -28549731#6 -28549731#4 -28549731#3 -28549731#2 -28549731#1 -28549731#0"/>
	</vehicle>
	<vehicle id ="102" depart ="12048.24" type ="Bus">
		 <route edges= "-58207369#2 -58207369#1 28549731#3 28549731#4 28549731#6 28549731#7 28549731#8 28549731#9 28549731#10 28549731#11 28549731#12"/>
	</vehicle>
	<vehicle id ="103" depart ="12140.57" type ="Bus">
		 <route edges= "-345230672#1 -345230672#0 -28549731#9 -28549731#8 -28549731#7 -28549731#6 -28549731#4 -28549731#3 58207369#1 58207369#2"/>
	</vehicle>
	<vehicle id ="104" depart ="12261.67" type ="Bus">
		 <route edges= "-58207369#2 -58207369#1 28549731#3 28549731#4 28549731#6 28549731#7 28549731#8 28549731#9 345230672#0 345230672#1"/>
	</vehicle>
	<vehicle id ="105" depart ="12341.43" type ="Car">
		 <route edges= "-28549731#12 -28549731#11 -28549731#10 -28549731#9 -28549731#8 -28549731#7 -28549731#6 -28549731#4 -28549731#3 58207369#1 58207369#2"/>
	</vehicle>
	<vehicle id ="106" depart ="12358.99" type ="Car">
		 <route edges= "28549731#0 28549731#1 28549731#2 28549731#3 28549731#4 28549731#6 28549731#7 28549731#8 28549731#9 345230672#0 345230672#1"/>
	</vehicle>
	<vehicle id ="107" depart ="12380.08" type ="Bus">
		 <route edges= "-345230672#1 -345230672#0 -28549731#9 -28549731#8 -28549731#7 -28549731#6 -28549731#4 -28549731#3 58207369#1 58207369#2"/>
	</vehicle>
	<vehicle id ="108" depart ="12406.39" type ="Bus">
		 <route edges= "28549731#0 28549731#1 28549731#2 28549731#3 28549731#4 28549731#6 28549731#7 28549731#8 28549731#9 28549731#10 28549731#11 28549731#12"/>
	</vehicle>
	<vehicle id ="109" depart ="12411.4" type ="Car">
		 <route edges= "-345230672#1 -345230672#0 -28549731#9 -28549731#8 -28549731#7 -28549731#6 -28549731#4 -28549731#3 -28549731#2 -28549731#1 -28549731#0"/>
	</vehicle>
	<vehicle id ="110" depart ="12412.67" type ="Car">
		 <route edges= "28549731#0 28549731#1 28549731#2 28549731#3 28549731#4 28549731#6 28549731#7 28549731#8 28549731#9 28549731#10 28549731#11 28549731#12"/>
	</vehicle>
	<vehicle id ="111" depart ="12483.7" type ="Car">
		 <route edges= "-345230672#1 -345230672#0 -28549731#9 -28549731#8 -28549731#7 -28549731#6 -28549731#4 -28549731#3 58207369#1 58207369#2"/>
	</vehicle>
	<vehicle id ="112" depart ="12483.79" type ="Car">
		 <route edges= "28549731#0 28549731#1 28549731#2 28549731#3 28549731#4 28549731#6 28549731#7 28549731#8 28549731#9 28549731#10 28549731#11 28549731#12"/>
	</vehicle>
	<vehicle id ="113" depart ="12490.8" type ="Car">
		 <route edges= "28549731#0 28549731#1 28549731#2 28549731#3 28549731#4 28549731#6 28549731#7 28549731#8 28549731#9 345230672#0 345230672#1"/>
	</vehicle>
	<vehicle id ="114" depart ="12542.38" type ="Car">
		 <route edges= "-58207369#2 -58207369#1 28549731#3 28549731#4 28549731#6 28549731#7 28549731#8 28549731#9 28549731#10 28549731#11 28549731#12"/>
	</vehicle>
	<vehicle id ="115" depart ="12577.21" type ="Car">
		 <route edges= "-58207369#2 -58207369#1 28549731#3 28549731#4 28549731#6 28549731#7 28549731#8 28549731#9 28549731#10 28549731#11 28549731#12"/>
	</vehicle>
	<vehicle id ="116" depart ="12595.56" type ="Truck">
		 <route edges= "-58207369#2 -58207369#1 28549731#3 28549731#4 28549731#6 28549731#7 28549731#8 28549731#9 28549731#10 28549731#11 28549731#12"/>
	</vehicle>
	<vehicle id ="117" depart ="12656.09" type ="Car">
		 <route edges= "28549731#0 28549731#1 28549731#2 28549731#3 28549731#4 28549731#6 28549731#7 28549731#8 28549731#9 345230672#0 345230672#1"/>
	</vehicle>
	<vehicle id ="118" depart ="12678.69" type ="Bus">
		 <route edges= "-345230672#1 -345230672#0 -28549731#9 -28549731#8 -28549731#7 -28549731#6 -28549731#4 -28549731#3 58207369#1 58207369#2"/>
	</vehicle>
	<vehicle id ="119" depart ="12680.09" type ="Car">
		 <route edges= "28549731#0 28549731#1 28549731#2 28549731#3 28549731#4 28549731#6 28549731#7 28549731#8 28549731#9 28549731#10 28549731#11 28549731#12"/>
	</vehicle>
	<vehicle id ="120" depart ="12709.67" type ="Car">
		 <route edges= "-345230672#1 -345230672#0 -28549731#9 -28549731#8 -28549731#7 -28549731#6 -28549731#4 -28549731#3 -28549731#2 -28549731#1 -28549731#0"/>
	</vehicle>
	<vehicle id ="121" depart ="12709.98" type ="Car">
		 <route edges= "28549731#0 28549731#1 28549731#2 28549731#3 28549731#4 28549731#6 28549731#7 28549731#8 28549731#9 28549731#10 28549731#11 28549731#12"/>
	</vehicle>
	<vehicle id ="122" depart ="12831.45" type ="Truck">
		 <route edges= "-345230672#1 -345230672#0 -28549731#9 -28549731#8 -28549731#7 -28549731#6 -28549731#4 -28549731#3 58207369#1 58207369#2"/>
	</vehicle>
	<vehicle id ="123" depart ="13078.18" type ="Car">
		 <route edges= "-58207369#2 -58207369#1 28549731#3 28549731#4 28549731#6 28549731#7 28549731#8 28549731#9 345230672#0 345230672#1"/>
	</vehicle>
	<vehicle id ="124" depart ="13088.34" type ="Car">
		 <route edges= "-345230672#1 -345230672#0 -28549731#9 -28549731#8 -28549731#7 -28549731#6 -28549731#4 -28549731#3 -28549731#2 -28549731#1 -28549731#0"/>
	</vehicle>
	<vehicle id ="125" depart ="13177.24" type ="Truck">
		 <route edges= "-58207369#2 -58207369#1 28549731#3 28549731#4 28549731#6 28549731#7 28549731#8 28549731#9 345230672#0 345230672#1"/>
	</vehicle>
	<vehicle id ="126" depart ="13227.87" type ="Car">
		 <route edges= "-345230672#1 -345230672#0 -28549731#9 -28549731#8 -28549731#7 -28549731#6 -28549731#4 -28549731#3 58207369#1 58207369#2"/>
	</vehicle>
	<vehicle id ="127" depart ="13246.18" type ="Bus">
		 <route edges= "-58207369#2 -58207369#1 28549731#3 28549731#4 28549731#6 28549731#7 28549731#8 28549731#9 345230672#0 345230672#1"/>
	</vehicle>
	<vehicle id ="128" depart ="13263.58" type ="Car">
		 <route edges= "-345230672#1 -345230672#0 -28549731#9 -28549731#8 -28549731#7 -28549731#6 -28549731#4 -28549731#3 58207369#1 58207369#2"/>
	</vehicle>
	<vehicle id ="129" depart ="13447.69" type ="Truck">
		 <route edges= "-58207369#2 -58207369#1 28549731#3 28549731#4 28549731#6 28549731#7 28549731#8 28549731#9 345230672#0 345230672#1"/>
	</vehicle>
	<vehicle id ="130" depart ="13492.49" type ="Bus">
		 <route edges= "-345230672#1 -345230672#0 -28549731#9 -28549731#8 -28549731#7 -28549731#6 -28549731#4 -28549731#3 58207369#1 58207369#2"/>
	</vehicle>
	<vehicle id ="131" depart ="13644.18" type ="Car">
		 <route edges= "28549731#0 28549731#1 28549731#2 28549731#3 28549731#4 28549731#6 28549731#7 28549731#8 28549731#9 345230672#0 345230672#1"/>
	</vehicle>
	<vehicle id ="132" depart ="13706.29" type ="Truck">
		 <route edges= "-345230672#1 -345230672#0 -28549731#9 -28549731#8 -28549731#7 -28549731#6 -28549731#4 -28549731#3 58207369#1 58207369#2"/>
	</vehicle>
	<vehicle id ="133" depart ="13865.57" type ="Car">