<?xml version='1.0' encoding='UTF-8'?>
<routes xmlns:xsi='http://www.w3.org/2001/XMLSchema-instance' xsi:noNamespaceSchemaLocation='http://sumo.dlr.de/xsd/routes_file.xsd'>
	<vType id='Car' emissionClass='HBEFA3/PC_G_EU4' accel='3.0' decel='6.0' length='5.0' minGap='2.5' maxSpeed='50.0'/>
	<vType id='Bus' emissionClass='HBEFA3/LDV_D_EU4' accel='2.0' decel='5.0' length='7.0' minGap='3.5' maxSpeed='40.0' color='red' guiShape='bus'/>
	<vType id='Truck' emissionClass='HBEFA3/HDV_D_EU4' accel='1.0' decel='5.0' length='7.0' minGap='3.5' maxSpeed='40.0' color='blue' guiShape='truck'/>
	<vType id='Motor_Bike' emissionClass='HBEFA3/PC_G_EU4' accel='2.0' decel='4.0' length='3.0' minGap='2.5' maxSpeed='50.0' color='165,105,189' guiShape='motorcycle'/>
	<vType id='electricCar' emissionClass='Zero' accel='3.0' decel='6.0' length='5.0' minGap='2.5' maxSpeed='50.0' color='green'>
		 <param key='has.battery.device' value='true'/> 
		 <param key='device.battery.capacity' value='2000'/> 
		 <param key='maximumPower' value='1000'/> 
		 <param key='frontSurfaceArea' value='5'/> 
		 <param key='airDragCoefficient' value='0.6'/> 
		 <param key='rotatingMass' value='100'/> 
		 <param key='radialDragCoefficient' value='0.5'/> 
		 <param key='rollDragCoefficient' value='0.01'/> 
		 <param key='constantPowerIntake' value='100'/> 
		 <param key='propulsionEfficiency' value='0.9'/> 
		 <param key='recuperationEfficiency' value='0.9'/> 
		 <param key='stoppingThreshold' value='0.1'/> 
		 <param key='device.battery.maximumChargeRate' value='150000'/> 
	</vType>
	<vehicle id ="1" depart ="7.52" type ="Car">
		 <route edges= "874420155 821923311#0 407171500#2 407171500#3 -821923309 -229242998#3 -229242998#2 -229242998#1 -229242998#0 229242996#0 229242996#1 229242996#2 229242996#3 -1091754525#1 -1091754525#0 -1091754524 874944056 874944055#0 874944055#1"/>
	</vehicle>
	<vehicle id ="2" depart ="12.01" type ="Car">
		 <route edges= "874944051 1091754524 1091754525#0 1091754525#1 229242995#0 229242995#1 229242995#2 229242995#3 229242998#0 229242998#1 229242998#2 229242998#3 821923309 1091754523 85469820#1"/>
	</vehicle>
	<vehicle id ="3" depart ="16.26" type ="Car">
		 <route edges= "229243004 1100993459#0 407171500#2 407171500#3 -821923309 -229242998#3 -229242998#2 -229242998#1 -229242998#0 229242996#0 229242996#1 229242996#2 229242996#3 -1091754525#1 -1091754525#0 -1091754524 874944056 874944055#0 874944055#1"/>
	</vehicle>
	<vehicle id ="4" depart ="33.36" type ="Car">
		 <route edges= "874944051 1091754524 1091754525#0 1091754525#1 229242995#0 229242995#1 229242995#2 229242995#3 229242998#0 229242998#1 229242998#2 229242998#3 821923309 1091754523 85469820#1"/>
	</vehicle>
	<vehicle id ="5" depart ="56.12" type ="Bus">
		 <route edges= "-874420151#0 821923307#0 821923307#1 85469404#0 407171500#2 407171500#3 -821923309 -229242998#3 -229242998#2 -229242998#1 -229242998#0 229242996#0 229242996#1 229242996#2 229242996#3 -1091754525#1 -1091754525#0 -1091754524 874944056 874944055#0 874944055#1"/>
	</vehicle>
	<vehicle id ="6" depart ="84.74" type ="Car">
		 <route edges= "-229243002#2 -229243002#1 -229243002#0 229242995#2 229242995#3 229242998#0 229242998#1 229242998#2 229242998#3 821923309 1091754523 407171499#1 407171499#3 407171499#4 1228125583"/>
	</vehicle>
	<vehicle id ="7" depart ="112.08" type ="Car">
		 <route edges= "874420155 821923311#0 407171500#2 407171500#3 -821923309 -229242998#3 -229242998#2 -229242998#1 -229242998#0 229242996#0 229242996#1 375748800#0 375748800#1 375748800#4"/>
	</vehicle>
	<vehicle id ="8" depart ="129.68" type ="Car">
		 <route edges= "-229243002#2 -229243002#1 -229243002#0 229242995#2 229242995#3 229242998#0 229242998#1 229242998#2 229242998#3 821923309 1091754523 85469820#1"/>
	</vehicle>
	<vehicle id ="9" depart ="167.8" type ="Car">
		 <route edges= "874420155 821923311#0 407171500#2 407171500#3 -821923309 -229242998#3 -229242998#2 -229242998#1 -229242998#0 229242996#0 229242996#1 375748800#0 375748800#1 375748800#4"/>
	</vehicle>
	<vehicle id ="10" depart ="168.57" type ="Car">
		 <route edges= "-229243002#2 -229243002#1 -229243002#0 229242995#2 229242995#3 229242998#0 229242998#1 229242998#2 229242998#3 821923309 1091754523 85469355#1 821923308#0 821923308#3 874420151#0"/>
	</vehicle>
	<vehicle id ="11" depart ="172.18" type ="Car">
		 <route edges= "-874420151#0 821923307#0 821923307#1 85469404#0 407171500#2 407171500#3 -821923309 -229242998#3 -229242998#2 -229242998#1 -229242998#0 229242996#0 229242996#1 229242996#2 229242996#3 -1091754525#1 -1091754525#0 -1091754524 874944056 874944055#0 874944055#1"/>
	</vehicle>
	<vehicle id ="12" depart ="192.91" type ="Car">
		 <route edges= "874944051 1091754524 1091754525#0 1091754525#1 229242995#0 229242995#1 229242995#2 229242995#3 229242998#0 229242998#1 229242998#2 229242998#3 821923309 1091754523 85469355#1 821923308#0 821923308#3 874420151#0"/>
	</vehicle>
	<vehicle id ="13" depart ="228.22" type ="Car">
		 <route edges= "874420155 821923311#0 407171500#2 407171500#3 -821923309 -229242998#3 -229242998#2 -229242998#1 -229242998#0 229242996#0 229242996#1 375748800#0 375748800#1 375748800#4"/>
	</vehicle>
	<vehicle id ="14" depart ="247.74" type ="Car">
		 <route edges= "-229243002#2 -229243002#1 -229243002#0 229242995#2 229242995#3 229242998#0 229242998#1 229242998#2 229242998#3 821923309 1091754523 85469355#1 821923308#0 821923308#3 874420151#0"/>
	</vehicle>
	<vehicle id ="15" depart ="274.93" type ="Car">
		 <route edges= "229243004 1100993459#0 407171500#2 407171500#3 -821923309 -229242998#3 -229242998#2 -229242998#1 -229242998#0 229242996#0 229242996#1 229242996#2 229242996#3 -1091754525#1 -1091754525#0 -1091754524 874944056 874944055#0 874944055#1"/>
	</vehicle>
	<vehicle id ="16" depart ="284.04" type ="Car">
		 <route edges= "874944051 1091754524 1091754525#0 1091754525#1 229242995#0 229242995#1 229242995#2 229242995#3 229242998#0 229242998#1 229242998#2 229242998#3 821923309 1091754523 85469355#1 821923308#0 821923308#3 874420151#0"/>
	</vehicle>
	<vehicle id ="17" depart ="294.4" type ="Car">
		 <route edges= "229243004 1100993459#0 407171500#2 407171500#3 -821923309 -229242998#3 -229242998#2 -229242998#1 -229242998#0 229242996#0 229242996#1 375748800#0 375748800#1 375748800#4"/>
	</vehicle>
	<vehicle id ="18" depart ="347.64" type ="Car">
		 <route edges= "874944051 1091754524 1091754525#0 1091754525#1 229242995#0 229242995#1 229242995#2 229242995#3 229242998#0 229242998#1 229242998#2 229242998#3 821923309 1091754523 407171499#1 407171499#3 407171499#4 1228125583"/>
	</vehicle>
	<vehicle id ="19" depart ="367.68" type ="Car">
		 <route edges= "-874420151#0 821923307#0 821923307#1 85469404#0 407171500#2 407171500#3 -821923309 -229242998#3 -229242998#2 -229242998#1 -229242998#0 229242996#0 229242996#1 229242996#2 229242996#3 -1091754525#1 -1091754525#0 -1091754524 874944056 874944055#0 874944055#1"/>
	</vehicle>
	<vehicle id ="20" depart ="394.74" type ="Car">
		 <route edges= "874944051 1091754524 1091754525#0 1091754525#1 229242995#0 229242995#1 229242995#2 229242995#3 229242998#0 229242998#1 229242998#2 229242998#3 821923309 1091754523 407171499#1 407171499#3 407171499#4 1228125583"/>
	</vehicle>
	<vehicle id ="21" depart ="427.59" type ="Car">
		 <route edges= "-874420151#0 821923307#0 821923307#1 85469404#0 407171500#2 407171500#3 -821923309 -229242998#3 -229242998#2 -229242998#1 -229242998#0 229242996#0 229242996#1 375748800#0 375748800#1 375748800#4"/>
	</vehicle>
	<vehicle id ="22" depart ="432.5" type ="Car">
		 <route edges= "-229243002#2 -229243002#1 -229243002#0 229242995#2 229242995#3 229242998#0 229242998#1 229242998#2 229242998#3 821923309 1091754523 85469355#1 821923308#0 821923308#3 874420151#0"/>
	</vehicle>
	<vehicle id ="23" depart ="434.29" type ="Car">
		 <route edges= "229243004 1100993459#0 407171500#2 407171500#3 -821923309 -229242998#3 -229242998#2 -229242998#1 -229242998#0 229242996#0 229242996#1 375748800#0 375748800#1 375748800#4"/>
	</vehicle>
	<vehicle id ="24" depart ="442.16" type ="Car">
		 <route edges= "874944051 1091754524 1091754525#0 1091754525#1 229242995#0 229242995#1 229242995#2 229242995#3 229242998#0 229242998#1 229242998#2 229242998#3 821923309 1091754523 85469820#1"/>
	</vehicle>
	<vehicle id ="25" depart ="455.0" type ="Car">
		 <route edges= "874420155 821923311#0 407171500#2 407171500#3 -821923309 -229242998#3 -229242998#2 -229242998#1 -229242998#0 229242996#0 229242996#1 229242996#2 229242996#3 -1091754525#1 -1091754525#0 -1091754524 874944056 874944055#0 874944055#1"/>
	</vehicle>
	<vehicle id ="26" depart ="460.52" type ="Car">
		 <route edges= "874944051 1091754524 1091754525#0 1091754525#1 229242995#0 229242995#1 229242995#2 229242995#3 229242998#0 229242998#1 229242998#2 229242998#3 821923309 1091754523 85469355#1 821923308#0 821923308#3 874420151#0"/>
	</vehicle>
	<vehicle id ="27" depart ="462.05" type ="Car">
		 <route edges= "229243004 1100993459#0 407171500#2 407171500#3 -821923309 -229242998#3 -229242998#2 -229242998#1 -229242998#0 229242996#0 229242996#1 229242996#2 229242996#3 -1091754525#1 -1091754525#0 -1091754524 874944056 874944055#0 874944055#1"/>
	</vehicle>
	<vehicle id ="28" depart ="463.52" type ="Car">
		 <route edges= "874944051 1091754524 1091754525#0 1091754525#1 229242995#0 229242995#1 229242995#2 229242995#3 229242998#0 229242998#1 229242998#2 229242998#3 821923309 1091754523 407171499#1 407171499#3 407171499#4 1228125583"/>
	</vehicle>
	<vehicle id ="29" depart ="499.22" type ="Car">
		 <route edges= "874420155 821923311#0 407171500#2 407171500#3 -821923309 -229242998#3 -229242998#2 -229242998#1 -229242998#0 229242996#0 229242996#1 229242996#2 229242996#3 -1091754525#1 -1091754525#0 -1091754524 874944056 874944055#0 874944055#1"/>
	</vehicle>
	<vehicle id ="30" depart ="514.11" type ="Car">
		 <route edges= "874944051 1091754524 1091754525#0 1091754525#1 229242995#0 229242995#1 229242995#2 229242995#3 229242998#0 229242998#1 229242998#2 229242998#3 821923309 1091754523 85469820#1"/>
	</vehicle>
	<vehicle id ="31" depart ="520.95" type ="Car">
		 <route edges= "229243004 1100993459#0 407171500#2 407171500#3 -821923309 -229242998#3 -229242998#2 -229242998#1 -229242998#0 229242996#0 229242996#1 375748800#0 375748800#1 375748800#4"/>
	</vehicle>
	<vehicle id ="32" depart ="528.27" type ="Car">
		 <route edges= "874944051 1091754524 1091754525#0 1091754525#1 229242995#0 229242995#1 229242995#2 229242995#3 229242998#0 229242998#1 229242998#2 229242998#3 821923309 1091754523 85469355#1 821923308#0 821923308#3 874420151#0"/>
	</vehicle>
	<vehicle id ="33" depart ="543.38" type ="Car">
		 <route edges= "229243004 1100993459#0 407171500#2 407171500#3 -821923309 -229242998#3 -229242998#2 -229242998#1 -229242998#0 229242996#0 229242996#1 375748800#0 375748800#1 375748800#4"/>
	</vehicle>
	<vehicle id ="34" depart ="563.66" type ="Car">
		 <route edges= "-229243002#2 -229243002#1 -229243002#0 229242995#2 229242995#3 229242998#0 229242998#1 229242998#2 229242998#3 821923309 1091754523 407171499#1 407171499#3 407171499#4 1228125583"/>
	</vehicle>
	<vehicle id ="35" depart ="595.25" type ="Car">
		 <route edges= "229243004 1100993459#0 407171500#2 407171500#3 -821923309 -229242998#3 -229242998#2 -229242998#1 -229242998#0 229242996#0 229242996#1 375748800#0 375748800#1 375748800#4"/>
	</vehicle>
	<vehicle id ="36" depart ="610.93" type ="Car">
		 <route edges= "874944051 1091754524 1091754525#0 1091754525#1 229242995#0 229242995#1 229242995#2 229242995#3 229242998#0 229242998#1 229242998#2 229242998#3 821923309 1091754523 85469355#1 821923308#0 821923308#3 874420151#0"/>
	</vehicle>
	<vehicle id ="37" depart ="612.19" type ="Car">
		 <route edges= "229243004 1100993459#0 407171500#2 407171500#3 -821923309 -229242998#3 -229242998#2 -229242998#1 -229242998#0 229242996#0 229242996#1 375748800#0 375748800#1 375748800#4"/>
	</vehicle>
	<vehicle id ="38" depart ="624.65" type ="Car">
		 <route edges= "-229243002#2 -229243002#1 -229243002#0 229242995#2 229242995#3 229242998#0 229242998#1 229242998#2 229242998#3 821923309 1091754523 407171499#1 407171499#3 407171499#4 1228125583"/>
	</vehicle>
	<vehicle id ="39" depart ="667.42" type ="Car">
		 <route edges= "229243004 1100993459#0 407171500#2 407171500#3 -821923309 -229242998#3 -229242998#2 -229242998#1 -229242998#0 229242996#0 229242996#1 375748800#0 375748800#1 375748800#4"/>
	</vehicle>
	<vehicle id ="40" depart ="692.71" type ="Car">
		 <route edges= "-229243002#2 -229243002#1 -229243002#0 229242995#2 229242995#3 229242998#0 229242998#1 229242998#2 229242998#3 821923309 1091754523 85469355#1 821923308#0 821923308#3 874420151#0"/>
	</vehicle>
	<vehicle id ="41" depart ="721.48" type ="Car">
		 <route edges= "-874420151#0 821923307#0 821923307#1 85469404#0 407171500#2 407171500#3 -821923309 -229242998#3 -229242998#2 -229242998#1 -229242998#0 229242996#0 229242996#1 229242996#2 229242996#3 -1091754525#1 -1091754525#0 -1091754524 874944056 874944055#0 874944055#1"/>
	</vehicle>
	<vehicle id ="42" depart ="725.34" type ="Car">
		 <route edges= "-229243002#2 -229243002#1 -229243002#0 229242995#2 229242995#3 229242998#0 229242998#1 229242998#2 229242998#3 821923309 1091754523 85469820#1"/>
	</vehicle>
	<vehicle id ="43" depart ="753.13" type ="Car">
		 <route edges= "874420155 821923311#0 407171500#2 407171500#3 -821923309 -229242998#3 -229242998#2 -229242998#1 -229242998#0 229242996#0 229242996#1 229242996#2 229242996#3 -1091754525#1 -1091754525#0 -1091754524 874944056 874944055#0 874944055#1"/>
	</vehicle>
	<vehicle id ="44" depart ="801.5" type ="Car">
		 <route edges= "874944051 1091754524 1091754525#0 1091754525#1 229242995#0 229242995#1 229242995#2 229242995#3 229242998#0 229242998#1 229242998#2 229242998#3 821923309 1091754523 85469820#1"/>
	</vehicle>
	<vehicle id ="45" depart ="825.01" type ="Car">
		 <route edges= "229243004 1100993459#0 407171500#2 407171500#3 -821923309 -229242998#3 -229242998#2 -229242998#1 -229242998#0 229242996#0 229242996#1 229242996#2 229242996#3 -1091754525#1 -1091754525#0 -1091754524 874944056 874944055#0 874944055#1"/>
	</vehicle>
	<vehicle id ="46" depart ="857.07" type ="Car">
		 <route edges= "229243004 1100993459#0 407171500#2 407171500#3 -821923309 -229242998#3 -229242998#2 -229242998#1 -229242998#0 229242996#0 229242996#1 375748800#0 375748800#1 375748800#4"/>
	</vehicle>
	<vehicle id ="47" depart ="864.61" type ="Car">
		 <route edges= "229243004 1100993459#0 407171500#2 407171500#3 -821923309 -229242998#3 -229242998#2 -229242998#1 -229242998#0 229242996#0 229242996#1 375748800#0 375748800#1 375748800#4"/>
	</vehicle>
	<vehicle id ="48" depart ="887.54" type ="Car">
		 <route edges= "874420155 821923311#0 407171500#2 407171500#3 -821923309 -229242998#3 -229242998#2 -229242998#1 -229242998#0 229242996#0 229242996#1 229242996#2 229242996#3 -1091754525#1 -1091754525#0 -1091754524 874944056 874944055#0 874944055#1"/>
	</vehicle>
	<vehicle id ="49" depart ="892.75" type ="Car">
		 <route edges= "229243004 1100993459#0 407171500#2 407171500#3 -821923309 -229242998#3 -229242998#2 -229242998#1 -229242998#0 229242996#0 229242996#1 229242996#2 229242996#3 -1091754525#1 -1091754525#0 -1091754524 874944056 874944055#0 874944055#1"/>
	</vehicle>
	<vehicle id ="50" depart ="897.01" type ="Car">
		 <route edges= "-874420151#0 821923307#0 821923307#1 85469404#0 407171500#2 407171500#3 -821923309 -229242998#3 -229242998#2 -229242998#1 -229242998#0 229242996#0 229242996#1 229242996#2 229242996#3 -1091754525#1 -1091754525#0 -1091754524 874944056 874944055#0 874944055#1"/>
	</vehicle>
	<vehicle id ="51" depart ="984.51" type ="Car">
		 <route edges= "229243004 1100993459#0 407171500#2 407171500#3 -821923309 -229242998#3 -229242998#2 -229242998#1 -229242998#0 229242996#0 229242996#1 375748800#0 375748800#1 375748800#4"/>
	</vehicle>
	<vehicle id ="52" depart ="998.75" type ="Car">
		 <route edges= "-229243002#2 -229243002#1 -229243002#0 229242995#2 229242995#3 229242998#0 229242998#1 229242998#2 229242998#3 821923309 1091754523 407171499#1 407171499#3 407171499#4 1228125583"/>
	</vehicle>
	<vehicle id ="53" depart ="1001.79" type ="Car">
		 <route edges= "874420155 821923311#0 407171500#2 407171500#3 -821923309 -229242998#3 -229242998#2 -229242998#1 -229242998#0 229242996#0 229242996#1 375748800#0 375748800#1 375748800#4"/>
	</vehicle>
	<vehicle id ="54" depart ="1040.34" type ="Car">
		 <route edges= "-229243002#2 -229243002#1 -229243002#0 229242995#2 229242995#3 229242998#0 229242998#1 229242998#2 229242998#3 821923309 1091754523 407171499#1 407171499#3 407171499#4 1228125583"/>
	</vehicle>
	<vehicle id ="55" depart ="1072.7" type ="Car">
		 <route edges= "874420155 821923311#0 407171500#2 407171500#3 -821923309 -229242998#3 -229242998#2 -229242998#1 -229242998#0 229242996#0 229242996#1 375748800#0 375748800#1 375748800#4"/>
	</vehicle>
	<vehicle id ="56" depart ="1087.84" type ="Car">
		 <route edges= "-229243002#2 -229243002#1 -229243002#0 229242995#2 229242995#3 229242998#0 229242998#1 229242998#2 229242998#3 821923309 1091754523 85469820#1"/>
	</vehicle>
	<vehicle id ="57" depart ="1134.13" type ="Car">
		 <route edges= "874420155 821923311#0 407171500#2 407171500#3 -821923309 -229242998#3 -229242998#2 -229242998#1 -229242998#0 229242996#0 229242996#1 375748800#0 375748800#1 375748800#4"/>
	</vehicle>
	<vehicle id ="58" depart ="1156.09" type ="Car">
		 <route edges= "-229243002#2 -229243002#1 -229243002#0 229242995#2 229242995#3 229242998#0 229242998#1 229242998#2 229242998#3 821923309 1091754523 407171499#1 407171499#3 407171499#4 1228125583"/>
	</vehicle>
	<vehicle id ="59" depart ="1170.0" type ="Car">
		 <route edges= "874420155 821923311#0 407171500#2 407171500#3 -821923309 -229242998#3 -229242998#2 -229242998#1 -229242998#0 229242996#0 229242996#1 375748800#0 375748800#1 375748800#4"/>
	</vehicle>
	<vehicle id ="60" depart ="1197.48" type ="Car">
		 <route edges= "-229243002#2 -229243002#1 -229243002#0 229242995#2 229242995#3 229242998#0 229242998#1 229242998#2 229242998#3 821923309 1091754523 407171499#1 407171499#3 407171499#4 1228125583"/>
	</vehicle>
	<vehicle id ="61" depart ="1209.33" type ="Car">
		 <route edges= "229243004 1100993459#0 407171500#2 407171500#3 -821923309 -229242998#3 -229242998#2 -229242998#1 -229242998#0 229242996#0 229242996#1 375748800#0 375748800#1 375748800#4"/>
	</vehicle>
	<vehicle id ="62" depart ="1215.67" type ="Car">
		 <route edges= "-229243002#2 -229243002#1 -229243002#0 229242995#2 229242995#3 229242998#0 229242998#1 229242998#2 229242998#3 821923309 1091754523 407171499#1 407171499#3 407171499#4 1228125583"/>
	</vehicle>
	<vehicle id ="63" depart ="1216.33" type ="Car">
		 <route edges= "-874420151#0 821923307#0 821923307#1 85469404#0 407171500#2 407171500#3 -821923309 -229242998#3 -229242998#2 -229242998#1 -229242998#0 229242996#0 229242996#1 229242996#2 229242996#3 -1091754525#1 -1091754525#0 -1091754524 874944056 874944055#0 874944055#1"/>
	</vehicle>
	<vehicle id ="64" depart ="1222.9" type ="Car">
		 <route edges= "874944051 1091754524 1091754525#0 1091754525#1 229242995#0 229242995#1 229242995#2 229242995#3 229242998#0 229242998#1 229242998#2 229242998#3 821923309 1091754523 407171499#1 407171499#3 407171499#4 1228125583"/>
	</vehicle>
	<vehicle id ="65" depart ="1228.24" type ="Car">
		 <route edges= "874420155 821923311#0 407171500#2 407171500#3 -821923309 -229242998#3 -229242998#2 -229242998#1 -229242998#0 229242996#0 229242996#1 375748800#0 375748800#1 375748800#4"/>
	</vehicle>
	<vehicle id ="66" depart ="1228.98" type ="Car">
		 <route edges= "874944051 1091754524 1091754525#0 1091754525#1 229242995#0 229242995#1 229242995#2 229242995#3 229242998#0 229242998#1 229242998#2 229242998#3 821923309 1091754523 85469820#1"/>
	</vehicle>
	<vehicle id ="67" depart ="1269.19" type ="Car">
		 <route edges= "-874420151#0 821923307#0 821923307#1 85469404#0 407171500#2 407171500#3 -821923309 -229242998#3 -229242998#2 -229242998#1 -229242998#0 229242996#0 229242996#1 229242996#2 229242996#3 -1091754525#1 -1091754525#0 -1091754524 874944056 874944055#0 874944055#1"/>
	</vehicle>
	<vehicle id ="68" depart ="1279.76" type ="Car">
		 <route edges= "-229243002#2 -229243002#1 -229243002#0 229242995#2 229242995#3 229242998#0 229242998#1 229242998#2 229242998#3 821923309 1091754523 85469355#1 821923308#0 821923308#3 874420151#0"/>
	</vehicle>
	<vehicle id ="69" depart ="1320.63" type ="Car">
		 <route edges= "874420155 821923311#0 407171500#2 407171500#3 -821923309 -229242998#3 -229242998#2 -229242998#1 -229242998#0 229242996#0 229242996#1 229242996#2 229242996#3 -1091754525#1 -1091754525#0 -1091754524 874944056 874944055#0 874944055#1"/>
	</vehicle>
	<vehicle id ="70" depart ="1376.83" type ="Bus">
		 <route edges= "-229243002#2 -229243002#1 -229243002#0 229242995#2 229242995#3 229242998#0 229242998#1 229242998#2 229242998#3 821923309 1091754523 85469820#1"/>
	</vehicle>
	<vehicle id ="71" depart ="1378.02" type ="Car">
		 <route edges= "874420155 821923311#0 407171500#2 407171500#3 -821923309 -229242998#3 -229242998#2 -229242998#1 -229242998#0 229242996#0 229242996#1 229242996#2 229242996#3 -1091754525#1 -1091754525#0 -1091754524 874944056 874944055#0 874944055#1"/>
	</vehicle>
	<vehicle id ="72" depart ="1390.27" type ="Car">
		 <route edges= "-229243002#2 -229243002#1 -229243002#0 229242995#2 229242995#3 229242998#0 229242998#1 229242998#2 229242998#3 821923309 1091754523 85469820#1"/>
	</vehicle>
	<vehicle id ="73" depart ="1402.71" type ="Car">
		 <route edges= "-874420151#0 821923307#0 821923307#1 85469404#0 407171500#2 407171500#3 -821923309 -229242998#3 -229242998#2 -229242998#1 -229242998#0 229242996#0 229242996#1 375748800#0 375748800#1 375748800#4"/>
	</vehicle>
	<vehicle id ="74" depart ="1417.63" type ="Car">
		 <route edges= "874944051 1091754524 1091754525#0 1091754525#1 229242995#0 229242995#1 229242995#2 229242995#3 229242998#0 229242998#1 229242998#2 229242998#3 821923309 1091754523 85469355#1 821923308#0 821923308#3 874420151#0"/>
	</vehicle>
	<vehicle id ="75" depart ="1479.85" type ="Car">
		 <route edges= "-874420151#0 821923307#0 821923307#1 85469404#0 407171500#2 407171500#3 -821923309 -229242998#3 -229242998#2 -229242998#1 -229242998#0 229242996#0 229242996#1 229242996#2 229242996#3 -1091754525#1 -1091754525#0 -1091754524 874944056 874944055#0 874944055#1"/>
	</vehicle>
	<vehicle id ="76" depart ="1531.41" type ="Car">
		 <route edges= "874944051 1091754524 1091754525#0 1091754525#1 229242995#0 229242995#1 229242995#2 229242995#3 229242998#0 229242998#1 229242998#2 229242998#3 821923309 1091754523 85469820#1"/>
	</vehicle>
	<vehicle id ="77" depart ="1531.9" type ="Car">
		 <route edges= "229243004 1100993459#0 407171500#2 407171500#3 -821923309 -229242998#3 -229242998#2 -229242998#1 -229242998#0 229242996#0 229242996#1 375748800#0 375748800#1 375748800#4"/>
	</vehicle>
	<vehicle id ="78" depart ="1582.36" type ="Car">
		 <route edges= "874944051 1091754524 1091754525#0 1091754525#1 229242995#0 229242995#1 229242995#2 229242995#3 229242998#0 229242998#1 229242998#2 229242998#3 821923309 1091754523 407171499#1 407171499#3 407171499#4 1228125583"/>
	</vehicle>
	<vehicle id ="79" depart ="1625.58" type ="Car">
		 <route edges= "874420155 821923311#0 407171500#2 407171500#3 -821923309 -229242998#3 -229242998#2 -229242998#1 -229242998#0 229242996#0 229242996#1 375748800#0 375748800#1 375748800#4"/>
	</vehicle>
	<vehicle id ="80" depart ="1627.9" type ="Car">
		 <route edges= "-229243002#2 -229243002#1 -229243002#0 229242995#2 229242995#3 229242998#0 229242998#1 229242998#2 229242998#3 821923309 1091754523 85469820#1"/>
	</vehicle>
	<vehicle id ="81" depart ="1643.9" type ="Car">
		 <route edges= "229243004 1100993459#0 407171500#2 407171500#3 -821923309 -229242998#3 -229242998#2 -229242998#1 -229242998#0 229242996#0 229242996#1 229242996#2 229242996#3 -1091754525#1 -1091754525#0 -1091754524 874944056 874944055#0 874944055#1"/>
	</vehicle>
	<vehicle id ="82" depart ="1650.05" type ="Car">
		 <route edges= "-874420151#0 821923307#0 821923307#1 85469404#0 407171500#2 407171500#3 -821923309 -229242998#3 -229242998#2 -229242998#1 -229242998#0 229242996#0 229242996#1 229242996#2 229242996#3 -1091754525#1 -1091754525#0 -1091754524 874944056 874944055#0 874944055#1"/>
	</vehicle>
	<vehicle id ="83" depart ="1689.17" type ="Car">
		 <route edges= "229243004 1100993459#0 407171500#2 407171500#3 -821923309 -229242998#3 -229242998#2 -229242998#1 -229242998#0 229242996#0 229242996#1 229242996#2 229242996#3 -1091754525#1 -1091754525#0 -1091754524 874944056 874944055#0 874944055#1"/>
	</vehicle>
	<vehicle id ="84" depart ="1758.0" type ="Car">
		 <route edges= "874420155 821923311#0 407171500#2 407171500#3 -821923309 -229242998#3 -229242998#2 -229242998#1 -229242998#0 229242996#0 229242996#1 375748800#0 375748800#1 375748800#4"/>
	</vehicle>
	<vehicle id ="85" depart ="1774.56" type ="Car">
		 <route edges= "-874420151#0 821923307#0 821923307#1 85469404#0 407171500#2 407171500#3 -821923309 -229242998#3 -229242998#2 -229242998#1 -229242998#0 229242996#0 229242996#1 229242996#2 229242996#3 -1091754525#1 -1091754525#0 -1091754524 874944056 874944055#0 874944055#1"/>
	</vehicle>
	<vehicle id ="86" depart ="1784.87" type ="Car">
		 <route edges= "874420155 821923311#0 407171500#2 407171500#3 -821923309 -229242998#3 -229242998#2 -229242998#1 -229242998#0 229242996#0 229242996#1 229242996#2 229242996#3 -1091754525#1 -1091754525#0 -1091754524 874944056 874944055#0 874944055#1"/>
	</vehicle>
	<vehicle id ="87" depart ="1814.62" type ="Car">
		 <route edges= "-874420151#0 821923307#0 821923307#1 85469404#0 407171500#2 407171500#3 -821923309 -229242998#3 -229242998#2 -229242998#1 -229242998#0 229242996#0 229242996#1 229242996#2 229242996#3 -1091754525#1 -1091754525#0 -1091754524 874944056 874944055#0 874944055#1"/>
	</vehicle>
	<vehicle id ="88" depart ="1844.07" type ="Car">
		 <route edges= "874944051 1091754524 1091754525#0 1091754525#1 229242995#0 229242995#1 229242995#2 229242995#3 229242998#0 229242998#1 229242998#2 229242998#3 821923309 1091754523 407171499#1 407171499#3 407171499#4 1228125583"/>
	</vehicle>
	<vehicle id ="89" depart ="1859.42" type ="Car">
		 <route edges= "229243004 1100993459#0 407171500#2 407171500#3 -821923309 -229242998#3 -229242998#2 -229242998#1 -229242998#0 229242996#0 229242996#1 375748800#0 375748800#1 375748800#4"/>
	</vehicle>
	<vehicle id ="90" depart ="1907.64" type ="Car">
		 <route edges= "874944051 1091754524 1091754525#0 1091754525#1 229242995#0 229242995#1 229242995#2 229242995#3 229242998#0 229242998#1 229242998#2 229242998#3 821923309 1091754523 85469820#1"/>
	</vehicle>
	<vehicle id ="91" depart ="1913.97" type ="Car">
		 <route edges= "229243004 1100993459#0 407171500#2 407171500#3 -821923309 -229242998#3 -229242998#2 -229242998#1 -229242998#0 229242996#0 229242996#1 375748800#0 375748800#1 375748800#4"/>
	</vehicle>
	<vehicle id ="92" depart ="1930.04" type ="Car">
		 <route edges= "-229243002#2 -229243002#1 -229243002#0 229242995#2 229242995#3 229242998#0 229242998#1 229242998#2 229242998#3 821923309 1091754523 407171499#1 407171499#3 407171499#4 1228125583"/>
	</vehicle>
	<vehicle id ="93" depart ="1957.25" type ="Car">
		 <route edges= "-874420151#0 821923307#0 821923307#1 85469404#0 407171500#2 407171500#3 -821923309 -229242998#3 -229242998#2 -229242998#1 -229242998#0 229242996#0 229242996#1 375748800#0 375748800#1 375748800#4"/>
	</vehicle>
	<vehicle id ="94" depart ="2013.56" type ="Bus">
		 <route edges= "-229243002#2 -229243002#1 -229243002#0 229242995#2 229242995#3 229242998#0 229242998#1 229242998#2 229242998#3 821923309 1091754523 85469355#1 821923308#0 821923308#3 874420151#0"/>
	</vehicle>
	<vehicle id ="95" depart ="2026.14" type ="Car">
		 <route edges= "229243004 1100993459#0 407171500#2 407171500#3 -821923309 -229242998#3 -229242998#2 -229242998#1 -229242998#0 229242996#0 229242996#1 375748800#0 375748800#1 375748800#4"/>
	</vehicle>
	<vehicle id ="96" depart ="2125.55" type ="Car">
		 <route edges= "-229243002#2 -229243002#1 -229243002#0 229242995#2 229242995#3 229242998#0 229242998#1 229242998#2 229242998#3 821923309 1091754523 85469820#1"/>
	</vehicle>
	<vehicle id ="97" depart ="2179.9" type ="Car">
		 <route edges= "229243004 1100993459#0 407171500#2 407171500#3 -821923309 -229242998#3 -229242998#2 -229242998#1 -229242998#0 229242996#0 229242996#1 229242996#2 229242996#3 -1091754525#1 -1091754525#0 -1091754524 874944056 874944055#0 874944055#1"/>
	</vehicle>
	<vehicle id ="98" depart ="2202.35" type ="Car">
		 <route edges= "874944051 1091754524 1091754525#0 1091754525#1 229242995#0 229242995#1 229242995#2 229242995#3 229242998#0 229242998#1 229242998#2 229242998#3 821923309 1091754523 85469355#1 821923308#0 821923308#3 874420151#0"/>
	</vehicle>
	<vehicle id ="99" depart ="2222.16" type ="Car">
		 <route edges= "874420155 821923311#0 407171500#2 407171500#3 -821923309 -229242998#3 -229242998#2 -229242998#1 -229242998#0 229242996#0 229242996#1 375748800#0 375748800#1 375748800#4"/>
	</vehicle>
	<vehicle id ="100" depart ="2232.17" type ="Car">
		 <route edges= "874944051 1091754524 1091754525#0 1091754525#1 229242995#0 229242995#1 229242995#2 229242995#3 229242998#0 229242998#1 229242998#2 229242998#3 821923309 1091754523 85469355#1 821923308#0 821923308#3 874420151#0"/>
	</vehicle>
	<vehicle id ="101" depart ="2245.42" type ="Car">
		 <route edges= "-229243002#2 -229243002#1 -229243002#0 229242995#2 229242995#3 229242998#0 229242998#1 229242998#2 229242998#3 821923309 1091754523 85469355#1 821923308#0 821923308#3 874420151#0"/>
	</vehicle>
	<vehicle id ="102" depart ="2267.73" type ="Car">