<routes xmlns:xsi="http://www.w3.org/2001/XMLSchema-instance" xsi:noNamespaceSchemaLocation="http://sumo.dlr.de/xsd/routes_file.xsd">
	<vType id="Car" accel="3.0" decel="6.0" length="5.0" minGap="2.5" maxSpeed="50.0" />
	<vType id="Bus" accel="2.0" decel="5.0" length="7.0" minGap="3.5" maxSpeed="40.0" color="red" guiShape="bus" />
	<vType id="Truck" accel="1.0" decel="5.0" length="7.0" minGap="3.5" maxSpeed="40.0" color="blue" guiShape="truck" />
	<vType id="Motor_Bike" accel="2.0" decel="4.0" length="3.0" minGap="2.5" maxSpeed="50.0" color="green" guiShape="motorcycle" />
	<vehicle id="1" depart="3.3" type="Car">
		 <route edges="821923307 85469404#0 407171500#2 407171500#3 -821923309 -229242998#3 -229242998#2 -229242998#1 -229242998#0 229242996#0 229242996#1 375748800#0 375748800#1" />
	</vehicle>
	<vehicle id="2" depart="19.92" type="Car">
		 <route edges="1091754525 229242995#0 229242995#1 229242995#2 229242995#3 229242998#0 229242998#1 229242998#2 229242998#3 821923309 1091754523 85469355#1 821923308" />
	</vehicle>
	<vehicle id="3" depart="86.23" type="Car">
		 <route edges="-407171499#1 407171500#2 407171500#3 -821923309 -229242998#3 -229242998#2 -229242998#1 -229242998#0 229242996#0 229242996#1 229242996#2 229242996#3 -1091754525" />
	</vehicle>
	<vehicle id="4" depart="100.0" type="electricCar">
		 <route edges="1091754525 229242995#0 229242995#1 229242995#2 229242995#3 229242998#0 229242998#1 229242998#2 229242998#3 821923309 1091754523 85469820#1" />
	</vehicle>
	<vehicle id="5" depart="324.69" type="Car">
		 <route edges="1100993459#0 407171500#2 407171500#3 -821923309 -229242998#3 -229242998#2 -229242998#1 -229242998#0 229242996#0 229242996#1 375748800#0 375748800#1" />
	</vehicle>
	<vehicle id="6" depart="352.36" type="Car">
		 <route edges="1091754525 229242995#0 229242995#1 229242995#2 229242995#3 229242998#0 229242998#1 229242998#2 229242998#3 821923309 1091754523 407171499#1" />
	</vehicle>
	<vehicle id="7" depart="361.48" type="Car">
		 <route edges="-407171499#1 407171500#2 407171500#3 -821923309 -229242998#3 -229242998#2 -229242998#1 -229242998#0 229242996#0 229242996#1 229242996#2 229242996#3 -1091754525" />
	</vehicle>
	<vehicle id="8" depart="384.05" type="Car">
		 <route edges="-229243002 229242995#2 229242995#3 229242998#0 229242998#1 229242998#2 229242998#3 821923309 1091754523 407171499#1" />
	</vehicle>
	<vehicle id="9" depart="394.37" type="Car">
		 <route edges="1100993459#0 407171500#2 407171500#3 -821923309 -229242998#3 -229242998#2 -229242998#1 -229242998#0 229242996#0 229242996#1 229242996#2 229242996#3 -1091754525" />
	</vehicle>
	<vehicle id="10" depart="452.22" type="Car">
		 <route edges="-229243002 229242995#2 229242995#3 229242998#0 229242998#1 229242998#2 229242998#3 821923309 1091754523 85469820#1" />
	</vehicle>
	<vehicle id="11" depart="606.4" type="Car">
		 <route edges="821923307 85469404#0 407171500#2 407171500#3 -821923309 -229242998#3 -229242998#2 -229242998#1 -229242998#0 229242996#0 229242996#1 229242996#2 229242996#3 -1091754525" />
	</vehicle>
	<vehicle id="12" depart="675.44" type="Car">
		 <route edges="-229243002 229242995#2 229242995#3 229242998#0 229242998#1 229242998#2 229242998#3 821923309 1091754523 407171499#1" />
	</vehicle>
	<vehicle id="13" depart="705.49" type="Car">
		 <route edges="821923307 85469404#0 407171500#2 407171500#3 -821923309 -229242998#3 -229242998#2 -229242998#1 -229242998#0 229242996#0 229242996#1 375748800#0 375748800#1" />
	</vehicle>
	<vehicle id="14" depart="727.04" type="Car">
		 <route edges="-229243002 229242995#2 229242995#3 229242998#0 229242998#1 229242998#2 229242998#3 821923309 1091754523 85469355#1 821923308" />
	</vehicle>
	<vehicle id="15" depart="744.71" type="Car">
		 <route edges="821923307 85469404#0 407171500#2 407171500#3 -821923309 -229242998#3 -229242998#2 -229242998#1 -229242998#0 229242996#0 229242996#1 375748800#0 375748800#1" />
	</vehicle>
	<vehicle id="16" depart="765.29" type="Car">
		 <route edges="-229243002 229242995#2 229242995#3 229242998#0 229242998#1 229242998#2 229242998#3 821923309 1091754523 85469355#1 821923308" />
	</vehicle>
	<vehicle id="17" depart="1008.83" type="Car">
		 <route edges="-407171499#1 407171500#2 407171500#3 -821923309 -229242998#3 -229242998#2 -229242998#1 -229242998#0 229242996#0 229242996#1 375748800#0 375748800#1" />
	</vehicle>
	<vehicle id="18" depart="1031.38" type="electricCar">
		 <route edges="1091754525 229242995#0 229242995#1 229242995#2 229242995#3 229242998#0 229242998#1 229242998#2 229242998#3 821923309 1091754523 85469355#1 821923308" />
	</vehicle>
	<vehicle id="19" depart="1078.33" type="Car">
		 <route edges="1100993459#0 407171500#2 407171500#3 -821923309 -229242998#3 -229242998#2 -229242998#1 -229242998#0 229242996#0 229242996#1 375748800#0 375748800#1" />
	</vehicle>
	<vehicle id="20" depart="1116.95" type="Car">
		 <route edges="1091754525 229242995#0 229242995#1 229242995#2 229242995#3 229242998#0 229242998#1 229242998#2 229242998#3 821923309 1091754523 407171499#1" />
	</vehicle>
	<vehicle id="21" depart="1129.37" type="Car">
		 <route edges="-407171499#1 407171500#2 407171500#3 -821923309 -229242998#3 -229242998#2 -229242998#1 -229242998#0 229242996#0 229242996#1 229242996#2 229242996#3 -1091754525" />
	</vehicle>
	<vehicle id="22" depart="1150.46" type="Car">
		 <route edges="-229243002 229242995#2 229242995#3 229242998#0 229242998#1 229242998#2 229242998#3 821923309 1091754523 85469355#1 821923308" />
	</vehicle>
	<vehicle id="23" depart="1228.62" type="Car">
		 <route edges="821923307 85469404#0 407171500#2 407171500#3 -821923309 -229242998#3 -229242998#2 -229242998#1 -229242998#0 229242996#0 229242996#1 375748800#0 375748800#1" />
	</vehicle>
	<vehicle id="24" depart="1274.55" type="Car">
		 <route edges="1091754525 229242995#0 229242995#1 229242995#2 229242995#3 229242998#0 229242998#1 229242998#2 229242998#3 821923309 1091754523 407171499#1" />
	</vehicle>
	<vehicle id="25" depart="1307.5" type="Car">
		 <route edges="821923307 85469404#0 407171500#2 407171500#3 -821923309 -229242998#3 -229242998#2 -229242998#1 -229242998#0 229242996#0 229242996#1 229242996#2 229242996#3 -1091754525" />
	</vehicle>
	<vehicle id="26" depart="1360.92" type="Car">
		 <route edges="1091754525 229242995#0 229242995#1 229242995#2 229242995#3 229242998#0 229242998#1 229242998#2 229242998#3 821923309 1091754523 85469355#1 821923308" />
	</vehicle>
	<vehicle id="27" depart="1365.77" type="electricCar">
		 <route edges="821923307 85469404#0 407171500#2 407171500#3 -821923309 -229242998#3 -229242998#2 -229242998#1 -229242998#0 229242996#0 229242996#1 375748800#0 375748800#1" />
	</vehicle>
	<vehicle id="28" depart="1381.01" type="Car">
		 <route edges="-229243002 229242995#2 229242995#3 229242998#0 229242998#1 229242998#2 229242998#3 821923309 1091754523 85469820#1" />
	</vehicle>
	<vehicle id="29" depart="1518.41" type="Car">
		 <route edges="821923307 85469404#0 407171500#2 407171500#3 -821923309 -229242998#3 -229242998#2 -229242998#1 -229242998#0 229242996#0 229242996#1 229242996#2 229242996#3 -1091754525" />
	</vehicle>
	<vehicle id="30" depart="1676.67" type="Car">
		 <route edges="-229243002 229242995#2 229242995#3 229242998#0 229242998#1 229242998#2 229242998#3 821923309 1091754523 85469355#1 821923308" />
	</vehicle>
	<vehicle id="31" depart="1703.7" type="Car">
		 <route edges="1100993459#0 407171500#2 407171500#3 -821923309 -229242998#3 -229242998#2 -229242998#1 -229242998#0 229242996#0 229242996#1 229242996#2 229242996#3 -1091754525" />
	</vehicle>
	<vehicle id="32" depart="1722.43" type="Car">
		 <route edges="-229243002 229242995#2 229242995#3 229242998#0 229242998#1 229242998#2 229242998#3 821923309 1091754523 85469820#1" />
	</vehicle>
	<vehicle id="33" depart="1736.34" type="Car">
		 <route edges="-229243002 229242995#2 229242995#3 229242998#0 229242998#1 229242998#2 229242998#3 821923309 1091754523 85469355#1 821923308" />
	</vehicle>
	<vehicle id="34" depart="1758.34" type="Car">
		 <route edges="1091754525 229242995#0 229242995#1 229242995#2 229242995#3 229242998#0 229242998#1 229242998#2 229242998#3 821923309 1091754523 85469355#1 821923308" />
	</vehicle>
	<vehicle id="35" depart="1802.85" type="Car">
		 <route edges="1100993459#0 407171500#2 407171500#3 -821923309 -229242998#3 -229242998#2 -229242998#1 -229242998#0 229242996#0 229242996#1 229242996#2 229242996#3 -1091754525" />
	</vehicle>
	<vehicle id="36" depart="1877.68" type="Car">
		 <route edges="-229243002 229242995#2 229242995#3 229242998#0 229242998#1 229242998#2 229242998#3 821923309 1091754523 407171499#1" />
	</vehicle>
	<vehicle id="37" depart="1947.08" type="Car">
		 <route edges="1100993459#0 407171500#2 407171500#3 -821923309 -229242998#3 -229242998#2 -229242998#1 -229242998#0 229242996#0 229242996#1 229242996#2 229242996#3 -1091754525" />
	</vehicle>
	<vehicle id="38" depart="1960.09" type="Car">
		 <route edges="1091754525 229242995#0 229242995#1 229242995#2 229242995#3 229242998#0 229242998#1 229242998#2 229242998#3 821923309 1091754523 85469355#1 821923308" />
	</vehicle>
	<vehicle id="39" depart="2135.35" type="Car">
		 <route edges="1100993459#0 407171500#2 407171500#3 -821923309 -229242998#3 -229242998#2 -229242998#1 -229242998#0 229242996#0 229242996#1 229242996#2 229242996#3 -1091754525" />
	</vehicle>
	<vehicle id="40" depart="2224.83" type="Car">
		 <route edges="-229243002 229242995#2 229242995#3 229242998#0 229242998#1 229242998#2 229242998#3 821923309 1091754523 85469355#1 821923308" />
	</vehicle>
	<vehicle id="41" depart="2370.19" type="Car">
		 <route edges="1091754525 229242995#0 229242995#1 229242995#2 229242995#3 229242998#0 229242998#1 229242998#2 229242998#3 821923309 1091754523 85469820#1" />
	</vehicle>
	<vehicle id="42" depart="2482.27" type="electricCar">
		 <route edges="1091754525 229242995#0 229242995#1 229242995#2 229242995#3 229242998#0 229242998#1 229242998#2 229242998#3 821923309 1091754523 85469355#1 821923308" />
	</vehicle>
	<vehicle id="43" depart="2496.63" type="Car">
		 <route edges="1091754525 229242995#0 229242995#1 229242995#2 229242995#3 229242998#0 229242998#1 229242998#2 229242998#3 821923309 1091754523 85469820#1" />
	</vehicle>
	<vehicle id="44" depart="2564.39" type="Car">
		 <route edges="1091754525 229242995#0 229242995#1 229242995#2 229242995#3 229242998#0 229242998#1 229242998#2 229242998#3 821923309 1091754523 85469820#1" />
	</vehicle>
	<vehicle id="45" depart="2614.49" type="Car">
		 <route edges="-229243002 229242995#2 229242995#3 229242998#0 229242998#1 229242998#2 229242998#3 821923309 1091754523 85469355#1 821923308" />
	</vehicle>
	<vehicle id="46" depart="2755.52" type="Bus">
		 <route edges="-407171499#1 407171500#2 407171500#3 -821923309 -229242998#3 -229242998#2 -229242998#1 -229242998#0 229242996#0 229242996#1 229242996#2 229242996#3 -1091754525" />
	</vehicle>
	<vehicle id="47" depart="2772.32" type="Bus">
		 <route edges="1091754525 229242995#0 229242995#1 229242995#2 229242995#3 229242998#0 229242998#1 229242998#2 229242998#3 821923309 1091754523 407171499#1" />
	</vehicle>
	<vehicle id="48" depart="2800.19" type="Car">
		 <route edges="-407171499#1 407171500#2 407171500#3 -821923309 -229242998#3 -229242998#2 -229242998#1 -229242998#0 229242996#0 229242996#1 375748800#0 375748800#1" />
	</vehicle>
	<vehicle id="49" depart="2910.68" type="Car">
		 <route edges="1091754525 229242995#0 229242995#1 229242995#2 229242995#3 229242998#0 229242998#1 229242998#2 229242998#3 821923309 1091754523 85469820#1" />
	</vehicle>
	<vehicle id="50" depart="2950.56" type="Car">
		 <route edges="-407171499#1 407171500#2 407171500#3 -821923309 -229242998#3 -229242998#2 -229242998#1 -229242998#0 229242996#0 229242996#1 229242996#2 229242996#3 -1091754525" />
	</vehicle>
	<vehicle id="51" depart="3061.91" type="electricCar">
		 <route edges="-229243002 229242995#2 229242995#3 229242998#0 229242998#1 229242998#2 229242998#3 821923309 1091754523 407171499#1" />
	</vehicle>
	<vehicle id="52" depart="3121.88" type="Car">
		 <route edges="821923307 85469404#0 407171500#2 407171500#3 -821923309 -229242998#3 -229242998#2 -229242998#1 -229242998#0 229242996#0 229242996#1 375748800#0 375748800#1" />
	</vehicle>
	<vehicle id="53" depart="3139.22" type="Car">
		 <route edges="-229243002 229242995#2 229242995#3 229242998#0 229242998#1 229242998#2 229242998#3 821923309 1091754523 407171499#1" />
	</vehicle>
	<vehicle id="54" depart="3208.65" type="Car">
		 <route edges="1100993459#0 407171500#2 407171500#3 -821923309 -229242998#3 -229242998#2 -229242998#1 -229242998#0 229242996#0 229242996#1 229242996#2 229242996#3 -1091754525" />
	</vehicle>
	<vehicle id="55" depart="3385.06" type="Car">
		 <route edges="1091754525 229242995#0 229242995#1 229242995#2 229242995#3 229242998#0 229242998#1 229242998#2 229242998#3 821923309 1091754523 85469355#1 821923308" />
	</vehicle>
	<vehicle id="56" depart="3452.5" type="electricCar">
		 <route edges="1100993459#0 407171500#2 407171500#3 -821923309 -229242998#3 -229242998#2 -229242998#1 -229242998#0 229242996#0 229242996#1 229242996#2 229242996#3 -1091754525" />
	</vehicle>
	<vehicle id="57" depart="3525.7" type="Car">
		 <route edges="1100993459#0 407171500#2 407171500#3 -821923309 -229242998#3 -229242998#2 -229242998#1 -229242998#0 229242996#0 229242996#1 229242996#2 229242996#3 -1091754525" />
	</vehicle>
	<vehicle id="58" depart="3551.6" type="Car">
		 <route edges="821923307 85469404#0 407171500#2 407171500#3 -821923309 -229242998#3 -229242998#2 -229242998#1 -229242998#0 229242996#0 229242996#1 229242996#2 229242996#3 -1091754525" />
	</vehicle>
	<vehicle id="59" depart="3556.34" type="Car">
		 <route edges="-407171499#1 407171500#2 407171500#3 -821923309 -229242998#3 -229242998#2 -229242998#1 -229242998#0 229242996#0 229242996#1 375748800#0 375748800#1" />
	</vehicle>
	<vehicle id="60" depart="3564.11" type="Car">
		 <route edges="-407171499#1 407171500#2 407171500#3 -821923309 -229242998#3 -229242998#2 -229242998#1 -229242998#0 229242996#0 229242996#1 375748800#0 375748800#1" />
	</vehicle>
	<vehicle id="61" depart="3667.87" type="Car">
		 <route edges="821923307 85469404#0 407171500#2 407171500#3 -821923309 -229242998#3 -229242998#2 -229242998#1 -229242998#0 229242996#0 229242996#1 375748800#0 375748800#1" />
	</vehicle>
	<vehicle id="62" depart="3725.8" type="Car">
		 <route edges="-229243002 229242995#2 229242995#3 229242998#0 229242998#1 229242998#2 229242998#3 821923309 1091754523 85469820#1" />
	</vehicle>
	<vehicle id="63" depart="3733.51" type="Car">
		 <route edges="1100993459#0 407171500#2 407171500#3 -821923309 -229242998#3 -229242998#2 -229242998#1 -229242998#0 229242996#0 229242996#1 229242996#2 229242996#3 -1091754525" />
	</vehicle>
	<vehicle id="64" depart="3922.58" type="Car">
		 <route edges="-229243002 229242995#2 229242995#3 229242998#0 229242998#1 229242998#2 229242998#3 821923309 1091754523 407171499#1" />
	</vehicle>
	<vehicle id="65" depart="3980.46" type="Car">
		 <route edges="821923307 85469404#0 407171500#2 407171500#3 -821923309 -229242998#3 -229242998#2 -229242998#1 -229242998#0 229242996#0 229242996#1 229242996#2 229242996#3 -1091754525" />
	</vehicle>
	<vehicle id="66" depart="3999.84" type="Car">
		 <route edges="1091754525 229242995#0 229242995#1 229242995#2 229242995#3 229242998#0 229242998#1 229242998#2 229242998#3 821923309 1091754523 85469355#1 821923308" />
	</vehicle>
	<vehicle id="67" depart="4019.86" type="Car">
		 <route edges="821923307 85469404#0 407171500#2 407171500#3 -821923309 -229242998#3 -229242998#2 -229242998#1 -229242998#0 229242996#0 229242996#1 375748800#0 375748800#1" />
	</vehicle>
	<vehicle id="68" depart="4094.2" type="Car">
		 <route edges="-229243002 229242995#2 229242995#3 229242998#0 229242998#1 229242998#2 229242998#3 821923309 1091754523 85469820#1" />
	</vehicle>
	<vehicle id="69" depart="4140.58" type="Car">
		 <route edges="1100993459#0 407171500#2 407171500#3 -821923309 -229242998#3 -229242998#2 -229242998#1 -229242998#0 229242996#0 229242996#1 375748800#0 375748800#1" />
	</vehicle>
	<vehicle id="70" depart="4189.04" type="Bus">
		 <route edges="-229243002 229242995#2 229242995#3 229242998#0 229242998#1 229242998#2 229242998#3 821923309 1091754523 85469820#1" />
	</vehicle>
	<vehicle id="71" depart="4376.95" type="Car">
		 <route edges="821923307 85469404#0 407171500#2 407171500#3 -821923309 -229242998#3 -229242998#2 -229242998#1 -229242998#0 229242996#0 229242996#1 229242996#2 229242996#3 -1091754525" />
	</vehicle>
	<vehicle id="72" depart="4555.43" type="Car">
		 <route edges="1100993459#0 407171500#2 407171500#3 -821923309 -229242998#3 -229242998#2 -229242998#1 -229242998#0 229242996#0 229242996#1 229242996#2 229242996#3 -1091754525" />
	</vehicle>
	<vehicle id="73" depart="4645.32" type="Bus">
		 <route edges="1091754525 229242995#0 229242995#1 229242995#2 229242995#3 229242998#0 229242998#1 229242998#2 229242998#3 821923309 1091754523 407171499#1" />
	</vehicle>
	<vehicle id="74" depart="4766.97" type="Car">
		 <route edges="821923307 85469404#0 407171500#2 407171500#3 -821923309 -229242998#3 -229242998#2 -229242998#1 -229242998#0 229242996#0 229242996#1 229242996#2 229242996#3 -1091754525" />
	</vehicle>
	<vehicle id="75" depart="4934.52" type="Car">
		 <route edges="1091754525 229242995#0 229242995#1 229242995#2 229242995#3 229242998#0 229242998#1 229242998#2 229242998#3 821923309 1091754523 85469355#1 821923308" />
	</vehicle>
	<vehicle id="76" depart="4944.45" type="Car">
		 <route edges="821923307 85469404#0 407171500#2 407171500#3 -821923309 -229242998#3 -229242998#2 -229242998#1 -229242998#0 229242996#0 229242996#1 229242996#2 229242996#3 -1091754525" />
	</vehicle>
	<vehicle id="77" depart="4962.78" type="Car">
		 <route edges="-229243002 229242995#2 229242995#3 229242998#0 229242998#1 229242998#2 229242998#3 821923309 1091754523 85469355#1 821923308" />
	</vehicle>
	<vehicle id="78" depart="5045.79" type="Car">
		 <route edges="-407171499#1 407171500#2 407171500#3 -821923309 -229242998#3 -229242998#2 -229242998#1 -229242998#0 229242996#0 229242996#1 375748800#0 375748800#1" />
	</vehicle>
	<vehicle id="79" depart="5111.38" type="Car">
		 <route edges="1091754525 229242995#0 229242995#1 229242995#2 229242995#3 229242998#0 229242998#1 229242998#2 229242998#3 821923309 1091754523 407171499#1" />
	</vehicle>
	<vehicle id="80" depart="5195.88" type="Car">
		 <route edges="1100993459#0 407171500#2 407171500#3 -821923309 -229242998#3 -229242998#2 -229242998#1 -229242998#0 229242996#0 229242996#1 375748800#0 375748800#1" />
	</vehicle>
	<vehicle id="81" depart="5308.06" type="Car">
		 <route edges="1091754525 229242995#0 229242995#1 229242995#2 229242995#3 229242998#0 229242998#1 229242998#2 229242998#3 821923309 1091754523 407171499#1" />
	</vehicle>
	<vehicle id="82" depart="5321.47" type="electricCar">
		 <route edges="821923307 85469404#0 407171500#2 407171500#3 -821923309 -229242998#3 -229242998#2 -229242998#1 -229242998#0 229242996#0 229242996#1 375748800#0 375748800#1" />
	</vehicle>
	<vehicle id="83" depart="5349.86" type="Car">
		 <route edges="1091754525 229242995#0 229242995#1 229242995#2 229242995#3 229242998#0 229242998#1 229242998#2 229242998#3 821923309 1091754523 85469355#1 821923308" />
	</vehicle>
	<vehicle id="84" depart="5448.15" type="Car">
		 <route edges="821923307 85469404#0 407171500#2 407171500#3 -821923309 -229242998#3 -229242998#2 -229242998#1 -229242998#0 229242996#0 229242996#1 375748800#0 375748800#1" />
	</vehicle>
	<vehicle id="85" depart="5650.23" type="Car">
		 <route edges="1091754525 229242995#0 229242995#1 229242995#2 229242995#3 229242998#0 229242998#1 229242998#2 229242998#3 821923309 1091754523 85469355#1 821923308" />
	</vehicle>
	<vehicle id="86" depart="5677.6" type="Car">
		 <route edges="821923307 85469404#0 407171500#2 407171500#3 -821923309 -229242998#3 -229242998#2 -229242998#1 -229242998#0 229242996#0 229242996#1 375748800#0 375748800#1" />
	</vehicle>
	<vehicle id="87" depart="5767.68" type="Car">
		 <route edges="1091754525 229242995#0 229242995#1 229242995#2 229242995#3 229242998#0 229242998#1 229242998#2 229242998#3 821923309 1091754523 85469355#1 821923308" />
	</vehicle>
	<vehicle id="88" depart="5842.5" type="Car">
		 <route edges="-407171499#1 407171500#2 407171500#3 -821923309 -229242998#3 -229242998#2 -229242998#1 -229242998#0 229242996#0 229242996#1 229242996#2 229242996#3 -1091754525" />
	</vehicle>
	<vehicle id="89" depart="5902.82" type="Car">
		 <route edges="1091754525 229242995#0 229242995#1 229242995#2 229242995#3 229242998#0 229242998#1 229242998#2 229242998#3 821923309 1091754523 407171499#1" />
	</vehicle>
	<vehicle id="90" depart="6112.79" type="Car">
		 <route edges="821923307 85469404#0 407171500#2 407171500#3 -821923309 -229242998#3 -229242998#2 -229242998#1 -229242998#0 229242996#0 229242996#1 229242996#2 229242996#3 -1091754525" />
	</vehicle>
	<vehicle id="91" depart="6213.75" type="Car">
		 <route edges="-229243002 229242995#2 229242995#3 229242998#0 229242998#1 229242998#2 229242998#3 821923309 1091754523 85469820#1" />
	</vehicle>
	<vehicle id="92" depart="6517.86" type="Car">
		 <route edges="821923307 85469404#0 407171500#2 407171500#3 -821923309 -229242998#3 -229242998#2 -229242998#1 -229242998#0 229242996#0 229242996#1 229242996#2 229242996#3 -1091754525" />
	</vehicle>
	<vehicle id="93" depart="6638.84" type="electricCar">
		 <route edges="1091754525 229242995#0 229242995#1 229242995#2 229242995#3 229242998#0 229242998#1 229242998#2 229242998#3 821923309 1091754523 85469355#1 821923308" />
	</vehicle>
	<vehicle id="94" depart="6831.74" type="Car">
		 <route edges="-407171499#1 407171500#2 407171500#3 -821923309 -229242998#3 -229242998#2 -229242998#1 -229242998#0 229242996#0 229242996#1 229242996#2 229242996#3 -1091754525" />
	</vehicle>
	<vehicle id="95" depart="6848.85" type="Car">
		 <route edges="-229243002 229242995#2 229242995#3 229242998#0 229242998#1 229242998#2 229242998#3 821923309 1091754523 85469820#1" />
	</vehicle>
	<vehicle id="96" depart="6918.09" type="electricCar">
		 <route edges="1091754525 229242995#0 229242995#1 229242995#2 229242995#3 229242998#0 229242998#1 229242998#2 229242998#3 821923309 1091754523 407171499#1" />
	</vehicle>
	<vehicle id="97" depart="6920.51" type="Car">
		 <route edges="1091754525 229242995#0 229242995#1 229242995#2 229242995#3 229242998#0 229242998#1 229242998#2 229242998#3 821923309 1091754523 85469355#1 821923308" />
	</vehicle>
	<vehicle id="98" depart="7172.55" type="Car">
		 <route edges="1091754525 229242995#0 229242995#1 229242995#2 229242995#3 229242998#0 229242998#1 229242998#2 229242998#3 821923309 1091754523 85469355#1 821923308" />
	</vehicle>
	<vehicle id="99" depart="7346.48" type="Bus">
		 <route edges="1100993459#0 407171500#2 407171500#3 -821923309 -229242998#3 -229242998#2 -229242998#1 -229242998#0 229242996#0 229242996#1 229242996#2 229242996#3 -1091754525" />
	</vehicle>
	<vehicle id="100" depart="7348.74" type="Car">
		 <route edges="-229243002 229242995#2 229242995#3 229242998#0 229242998#1 229242998#2 229242998#3 821923309 1091754523 407171499#1" />
	</vehicle>
	<vehicle id="101" depart="7432.3" type="Car">
		 <route edges="1100993459#0 407171500#2 407171500#3 -821923309 -229242998#3 -229242998#2 -229242998#1 -229242998#0 229242996#0 229242996#1 229242996#2 229242996#3 -1091754525" />
	</vehicle>
	<vehicle id="102" depart="7512.5" type="Car">
		 <route edges="-229243002 229242995#2 229242995#3 229242998#0 229242998#1 229242998#2 229242998#3 821923309 1091754523 85469820#1" />
	</vehicle>
	<vehicle id="103" depart="7531.18" type="Car">
		 <route edges="1100993459#0 407171500#2 407171500#3 -821923309 -229242998#3 -229242998#2 -229242998#1 -229242998#0 229242996#0 229242996#1 229242996#2 229242996#3 -1091754525" />
	</vehicle>
	<vehicle id="104" depart="7537.38" type="Bus">
		 <route edges="1091754525 229242995#0 229242995#1 229242995#2 229242995#3 229242998#0 229242998#1 229242998#2 229242998#3 821923309 1091754523 407171499#1" />
	</vehicle>
	<vehicle id="105" depart="7568.69" type="Bus">
		 <route edges="-407171499#1 407171500#2 407171500#3 -821923309 -229242998#3 -229242998#2 -229242998#1 -229242998#0 229242996#0 229242996#1 229242996#2 229242996#3 -1091754525" />
	</vehicle>
	<vehicle id="106" depart="7655.03" type="Car">
		 <route edges="-229243002 229242995#2 229242995#3 229242998#0 229242998#1 229242998#2 229242998#3 821923309 1091754523 407171499#1" />
	</vehicle>
	<vehicle id="107" depart="7681.93" type="Car">
		 <route edges="821923307 85469404#0 407171500#2 407171500#3 -821923309 -229242998#3 -229242998#2 -229242998#1 -229242998#0 229242996#0 229242996#1 229242996#2 229242996#3 -1091754525" />
	</vehicle>
	<vehicle id="108" depart="7788.44" type="Truck">
		 <route edges="1091754525 229242995#0 229242995#1 229242995#2 229242995#3 229242998#0 229242998#1 229242998#2 229242998#3 821923309 1091754523 407171499#1" />
	</vehicle>
	<vehicle id="109" depart="7828.78" type="Car">
		 <route edges="-407171499#1 407171500#2 407171500#3 -821923309 -229242998#3 -229242998#2 -229242998#1 -229242998#0 229242996#0 229242996#1 229242996#2 229242996#3 -1091754525" />
	</vehicle>
	<vehicle id="110" depart="7867.58" type="Car">
		 <route edges="1091754525 229242995#0 229242995#1 229242995#2 229242995#3 229242998#0 229242998#1 229242998#2 229242998#3 821923309 1091754523 407171499#1" />
	</vehicle>
	<vehicle id="111" depart="8086.34" type="Car">
		 <route edges="-229243002 229242995#2 229242995#3 229242998#0 229242998#1 229242998#2 229242998#3 821923309 1091754523 85469355#1 821923308" />
	</vehicle>
	<vehicle id="112" depart="8135.49" type="Bus">
		 <route edges="-407171499#1 407171500#2 407171500#3 -821923309 -229242998#3 -229242998#2 -229242998#1 -229242998#0 229242996#0 229242996#1 229242996#2 229242996#3 -1091754525" />
	</vehicle>
	<vehicle id="113" depart="8171.64" type="Car">
		 <route edges="-229243002 229242995#2 229242995#3 229242998#0 229242998#1 229242998#2 229242998#3 821923309 1091754523 85469820#1" />
	</vehicle>
	<vehicle id="114" depart="8194.23" type="Car">
		 <route edges="1100993459#0 407171500#2 407171500#3 -821923309 -229242998#3 -229242998#2 -229242998#1 -229242998#0 229242996#0 229242996#1 375748800#0 375748800#1" />
	</vehicle>
	<vehicle id="115" depart="8255.26" type="Car">
		 <route edges="1091754525 229242995#0 229242995#1 229242995#2 229242995#3 229242998#0 229242998#1 229242998#2 229242998#3 821923309 1091754523 407171499#1" />
	</vehicle>
	<vehicle id="116" depart="8404.7" type="Car">
		 <route edges="1100993459#0 407171500#2 407171500#3 -821923309 -229242998#3 -229242998#2 -229242998#1 -229242998#0 229242996#0 229242996#1 229242996#2 229242996#3 -1091754525" />
	</vehicle>
	<vehicle id="117" depart="8453.91" type="Car">
		 <route edges="-229243002 229242995#2 229242995#3 229242998#0 229242998#1 229242998#2 229242998#3 821923309 1091754523 85469820#1" />
	</vehicle>
	<vehicle id="118" depart="8564.89" type="Car">
		 <route edges="1100993459#0 407171500#2 407171500#3 -821923309 -229242998#3 -229242998#2 -229242998#1 -229242998#0 229242996#0 229242996#1 229242996#2 229242996#3 -1091754525" />
	</vehicle>
	<vehicle id="119" depart="8573.23" type="Car">
		 <route edges="1091754525 229242995#0 229242995#1 229242995#2 229242995#3 229242998#0 229242998#1 229242998#2 229242998#3 821923309 1091754523 85469820#1" />
	</vehicle>
	<vehicle id="120" depart="8598.73" type="Car">
		 <route edges="-407171499#1 407171500#2 407171500#3 -821923309 -229242998#3 -229242998#2 -229242998#1 -229242998#0 229242996#0 229242996#1 229242996#2 229242996#3 -1091754525" />
	</vehicle>
	<vehicle id="121" depart="8714.97" type="electricCar">
		 <route edges="1091754525 229242995#0 229242995#1 229242995#2 229242995#3 229242998#0 229242998#1 229242998#2 229242998#3 821923309 1091754523 85469820#1" />
	</vehicle>
	<vehicle id="122" depart="8727.29" type="Car">
		 <route edges="1091754525 229242995#0 229242995#1 229242995#2 229242995#3 229242998#0 229242998#1 229242998#2 229242998#3 821923309 1091754523 85469820#1" />
	</vehicle>
	<vehicle id="123" depart="8793.14" type="Car">
		 <route edges="-229243002 229242995#2 229242995#3 229242998#0 229242998#1 229242998#2 229242998#3 821923309 1091754523 85469820#1" />
	</vehicle>
	<vehicle id="124" depart="9048.25" type="Car">
		 <route edges="-407171499#1 407171500#2 407171500#3 -821923309 -229242998#3 -229242998#2 -229242998#1 -229242998#0 229242996#0 229242996#1 229242996#2 229242996#3 -1091754525" />
	</vehicle>
	<vehicle id="125" depart="9097.65" type="Car">
		 <route edges="1091754525 229242995#0 229242995#1 229242995#2 229242995#3 229242998#0 229242998#1 229242998#2 229242998#3 821923309 1091754523 85469820#1" />
	</vehicle>
	<vehicle id="126" depart="9097.74" type="Car">
		 <route edges="821923307 85469404#0 407171500#2 407171500#3 -821923309 -229242998#3 -229242998#2 -229242998#1 -229242998#0 229242996#0 229242996#1 375748800#0 375748800#1" />
	</vehicle>
	<vehicle id="127" depart="9122.05" type="Car">
		 <route edges="1091754525 229242995#0 229242995#1 229242995#2 229242995#3 229242998#0 229242998#1 229242998#2 229242998#3 821923309 1091754523 85469355#1 821923308" />
	</vehicle>
	<vehicle id="128" depart="9206.84" type="electricCar">
		 <route edges="1100993459#0 407171500#2 407171500#3 -821923309 -229242998#3 -229242998#2 -229242998#1 -229242998#0 229242996#0 229242996#1 375748800#0 375748800#1" />
	</vehicle>
	<vehicle id="129" depart="9228.95" type="Car">