<routes xmlns:xsi="http://www.w3.org/2001/XMLSchema-instance" xsi:noNamespaceSchemaLocation="http://sumo.dlr.de/xsd/routes_file.xsd">
	<vType id="Car" emissionClass="HBEFA3/PC_G_EU4" accel="3.0" decel="6.0" length="5.0" minGap="2.5" maxSpeed="50.0" />
	<vType id="Bus" emissionClass="HBEFA3/LDV_D_EU4" accel="2.0" decel="5.0" length="7.0" minGap="3.5" maxSpeed="40.0" color="red" guiShape="bus" />
	<vType id="Truck" emissionClass="HBEFA3/HDV_D_EU4" accel="1.0" decel="5.0" length="7.0" minGap="3.5" maxSpeed="40.0" color="blue" guiShape="truck" />
	<vType id="Motor_Bike" emissionClass="HBEFA3/PC_G_EU4" accel="2.0" decel="4.0" length="3.0" minGap="2.5" maxSpeed="50.0" color="165,105,189" guiShape="motorcycle" />
	<vType id="electricCar" emissionClass="Zero" accel="3.0" decel="6.0" length="5.0" minGap="2.5" maxSpeed="50.0" color="green">
		 <param key="has.battery.device" value="true" /> 
		 <param key="device.battery.capacity" value="2000" /> 
		 <param key="maximumPower" value="1000" /> 
		 <param key="frontSurfaceArea" value="5" /> 
		 <param key="airDragCoefficient" value="0.6" /> 
		 <param key="rotatingMass" value="100" /> 
		 <param key="radialDragCoefficient" value="0.5" /> 
		 <param key="rollDragCoefficient" value="0.01" /> 
		 <param key="constantPowerIntake" value="100" /> 
		 <param key="propulsionEfficiency" value="0.9" /> 
		 <param key="recuperationEfficiency" value="0.9" /> 
		 <param key="stoppingThreshold" value="0.1" /> 
		 <param key="device.battery.maximumChargeRate" value="150000" /> 
	</vType>
	<vehicle id="1" depart="69.57" type="Car">
		 <route edges="-58207369#2 -58207369#1 28549731#3 28549731#4 28549731#6 28549731#7 28549731#8 28549731#9 28549731#10 28549731#11 28549731#12" />
	</vehicle>
	<vehicle id="2" depart="162.6" type="Car">
		 <route edges="-28549731#12 -28549731#11 -28549731#10 -28549731#9 -28549731#8 -28549731#7 -28549731#6 -28549731#4 -28549731#3 -28549731#2 -28549731#1 -28549731#0" />
	</vehicle>
	<vehicle id="3" depart="279.46" type="Bus">
		 <route edges="-58207369#2 -58207369#1 28549731#3 28549731#4 28549731#6 28549731#7 28549731#8 28549731#9 28549731#10 28549731#11 28549731#12" />
	</vehicle>
	<vehicle id="4" depart="458.5" type="Car">
		 <route edges="-345230672#1 -345230672#0 -28549731#9 -28549731#8 -28549731#7 -28549731#6 -28549731#4 -28549731#3 -28549731#2 -28549731#1 -28549731#0" />
	</vehicle>
	<vehicle id="5" depart="619.99" type="Truck">
		 <route edges="-58207369#2 -58207369#1 28549731#3 28549731#4 28549731#6 28549731#7 28549731#8 28549731#9 345230672#0 345230672#1" />
	</vehicle>
	<vehicle id="6" depart="628.72" type="Car">
		 <route edges="-28549731#12 -28549731#11 -28549731#10 -28549731#9 -28549731#8 -28549731#7 -28549731#6 -28549731#4 -28549731#3 58207369#1 58207369#2" />
	</vehicle>
	<vehicle id="7" depart="748.42" type="Car">
		 <route edges="-345230672#1 -345230672#0 -28549731#9 -28549731#8 -28549731#7 -28549731#6 -28549731#4 -28549731#3 58207369#1 58207369#2" />
	</vehicle>
	<vehicle id="8" depart="977.2" type="Car">
		 <route edges="-58207369#2 -58207369#1 28549731#3 28549731#4 28549731#6 28549731#7 28549731#8 28549731#9 28549731#10 28549731#11 28549731#12" />
	</vehicle>
	<vehicle id="9" depart="1128.47" type="Car">
		 <route edges="-345230672#1 -345230672#0 -28549731#9 -28549731#8 -28549731#7 -28549731#6 -28549731#4 -28549731#3 58207369#1 58207369#2" />
	</vehicle>
	<vehicle id="10" depart="1595.95" type="Car">
		 <route edges="-58207369#2 -58207369#1 28549731#3 28549731#4 28549731#6 28549731#7 28549731#8 28549731#9 345230672#0 345230672#1" />
	</vehicle>
	<vehicle id="11" depart="1612.06" type="Car">
		 <route edges="-345230672#1 -345230672#0 -28549731#9 -28549731#8 -28549731#7 -28549731#6 -28549731#4 -28549731#3 -28549731#2 -28549731#1 -28549731#0" />
	</vehicle>
	<vehicle id="12" depart="1624.78" type="Car">
		 <route edges="-58207369#2 -58207369#1 28549731#3 28549731#4 28549731#6 28549731#7 28549731#8 28549731#9 28549731#10 28549731#11 28549731#12" />
	</vehicle>
	<vehicle id="13" depart="2567.63" type="Car">
		 <route edges="-28549731#12 -28549731#11 -28549731#10 -28549731#9 -28549731#8 -28549731#7 -28549731#6 -28549731#4 -28549731#3 58207369#1 58207369#2" />
	</vehicle>
	<vehicle id="14" depart="3864.06" type="Car">
		 <route edges="28549731#0 28549731#1 28549731#2 28549731#3 28549731#4 28549731#6 28549731#7 28549731#8 28549731#9 28549731#10 28549731#11 28549731#12" />
	</vehicle>
	<vehicle id="15" depart="4068.96" type="Car">
		 <route edges="-28549731#12 -28549731#11 -28549731#10 -28549731#9 -28549731#8 -28549731#7 -28549731#6 -28549731#4 -28549731#3 -28549731#2 -28549731#1 -28549731#0" />
	</vehicle>
	<vehicle id="16" depart="4081.39" type="Car">
		 <route edges="-58207369#2 -58207369#1 28549731#3 28549731#4 28549731#6 28549731#7 28549731#8 28549731#9 28549731#10 28549731#11 28549731#12" />
	</vehicle>
	<vehicle id="17" depart="4104.08" type="Car">
		 <route edges="-28549731#12 -28549731#11 -28549731#10 -28549731#9 -28549731#8 -28549731#7 -28549731#6 -28549731#4 -28549731#3 58207369#1 58207369#2" />
	</vehicle>
	<vehicle id="18" depart="4418.59" type="Car">
		 <route edges="-58207369#2 -58207369#1 28549731#3 28549731#4 28549731#6 28549731#7 28549731#8 28549731#9 28549731#10 28549731#11 28549731#12" />
	</vehicle>
	<vehicle id="19" depart="4589.9" type="Bus">
		 <route edges="28549731#0 28549731#1 28549731#2 28549731#3 28549731#4 28549731#6 28549731#7 28549731#8 28549731#9 28549731#10 28549731#11 28549731#12" />
	</vehicle>
	<vehicle id="20" depart="4773.14" type="Car">
		 <route edges="-28549731#12 -28549731#11 -28549731#10 -28549731#9 -28549731#8 -28549731#7 -28549731#6 -28549731#4 -28549731#3 58207369#1 58207369#2" />
	</vehicle>
	<vehicle id="21" depart="4790.47" type="Car">
		 <route edges="-58207369#2 -58207369#1 28549731#3 28549731#4 28549731#6 28549731#7 28549731#8 28549731#9 345230672#0 345230672#1" />
	</vehicle>
	<vehicle id="22" depart="4994.51" type="Car">
		 <route edges="-28549731#12 -28549731#11 -28549731#10 -28549731#9 -28549731#8 -28549731#7 -28549731#6 -28549731#4 -28549731#3 -28549731#2 -28549731#1 -28549731#0" />
	</vehicle>
	<vehicle id="23" depart="5001.66" type="Bus">
		 <route edges="28549731#0 28549731#1 28549731#2 28549731#3 28549731#4 28549731#6 28549731#7 28549731#8 28549731#9 28549731#10 28549731#11 28549731#12" />
	</vehicle>
	<vehicle id="24" depart="5038.34" type="electricCar">
		 <route edges="-28549731#12 -28549731#11 -28549731#10 -28549731#9 -28549731#8 -28549731#7 -28549731#6 -28549731#4 -28549731#3 58207369#1 58207369#2" />
	</vehicle>
	<vehicle id="25" depart="5053.02" type="Car">
		 <route edges="-345230672#1 -345230672#0 -28549731#9 -28549731#8 -28549731#7 -28549731#6 -28549731#4 -28549731#3 -28549731#2 -28549731#1 -28549731#0" />
	</vehicle>
	<vehicle id="26" depart="5414.48" type="Car">
		 <route edges="-58207369#2 -58207369#1 28549731#3 28549731#4 28549731#6 28549731#7 28549731#8 28549731#9 28549731#10 28549731#11 28549731#12" />
	</vehicle>
	<vehicle id="27" depart="5423.35" type="Bus">
		 <route edges="-345230672#1 -345230672#0 -28549731#9 -28549731#8 -28549731#7 -28549731#6 -28549731#4 -28549731#3 -28549731#2 -28549731#1 -28549731#0" />
	</vehicle>
	<vehicle id="28" depart="5589.68" type="Car">
		 <route edges="28549731#0 28549731#1 28549731#2 28549731#3 28549731#4 28549731#6 28549731#7 28549731#8 28549731#9 345230672#0 345230672#1" />
	</vehicle>
	<vehicle id="29" depart="5643.63" type="Car">
		 <route edges="-345230672#1 -345230672#0 -28549731#9 -28549731#8 -28549731#7 -28549731#6 -28549731#4 -28549731#3 -28549731#2 -28549731#1 -28549731#0" />
	</vehicle>
	<vehicle id="30" depart="5791.15" type="Car">
		 <route edges="28549731#0 28549731#1 28549731#2 28549731#3 28549731#4 28549731#6 28549731#7 28549731#8 28549731#9 345230672#0 345230672#1" />
	</vehicle>
	<vehicle id="31" depart="5882.22" type="Car">
		 <route edges="-28549731#12 -28549731#11 -28549731#10 -28549731#9 -28549731#8 -28549731#7 -28549731#6 -28549731#4 -28549731#3 58207369#1 58207369#2" />
	</vehicle>
	<vehicle id="32" depart="5965.62" type="Car">
		 <route edges="-28549731#12 -28549731#11 -28549731#10 -28549731#9 -28549731#8 -28549731#7 -28549731#6 -28549731#4 -28549731#3 58207369#1 58207369#2" />
	</vehicle>
	<vehicle id="33" depart="6050.63" type="Bus">
		 <route edges="-28549731#12 -28549731#11 -28549731#10 -28549731#9 -28549731#8 -28549731#7 -28549731#6 -28549731#4 -28549731#3 58207369#1 58207369#2" />
	</vehicle>
	<vehicle id="34" depart="6155.25" type="Car">
		 <route edges="-28549731#12 -28549731#11 -28549731#10 -28549731#9 -28549731#8 -28549731#7 -28549731#6 -28549731#4 -28549731#3 -28549731#2 -28549731#1 -28549731#0" />
	</vehicle>
	<vehicle id="35" depart="6155.55" type="Car">
		 <route edges="-345230672#1 -345230672#0 -28549731#9 -28549731#8 -28549731#7 -28549731#6 -28549731#4 -28549731#3 -28549731#2 -28549731#1 -28549731#0" />
	</vehicle>
	<vehicle id="36" depart="6176.51" type="Car">
		 <route edges="-28549731#12 -28549731#11 -28549731#10 -28549731#9 -28549731#8 -28549731#7 -28549731#6 -28549731#4 -28549731#3 -28549731#2 -28549731#1 -28549731#0" />
	</vehicle>
	<vehicle id="37" depart="6188.52" type="Car">
		 <route edges="-345230672#1 -345230672#0 -28549731#9 -28549731#8 -28549731#7 -28549731#6 -28549731#4 -28549731#3 58207369#1 58207369#2" />
	</vehicle>
	<vehicle id="38" depart="6463.69" type="Car">
		 <route edges="-58207369#2 -58207369#1 28549731#3 28549731#4 28549731#6 28549731#7 28549731#8 28549731#9 28549731#10 28549731#11 28549731#12" />
	</vehicle>
	<vehicle id="39" depart="6485.59" type="Car">
		 <route edges="-345230672#1 -345230672#0 -28549731#9 -28549731#8 -28549731#7 -28549731#6 -28549731#4 -28549731#3 58207369#1 58207369#2" />
	</vehicle>
	<vehicle id="40" depart="6577.48" type="Car">
		 <route edges="-58207369#2 -58207369#1 28549731#3 28549731#4 28549731#6 28549731#7 28549731#8 28549731#9 28549731#10 28549731#11 28549731#12" />
	</vehicle>
	<vehicle id="41" depart="6719.75" type="Car">
		 <route edges="-345230672#1 -345230672#0 -28549731#9 -28549731#8 -28549731#7 -28549731#6 -28549731#4 -28549731#3 58207369#1 58207369#2" />
	</vehicle>
	<vehicle id="42" depart="7339.56" type="Truck">
		 <route edges="-58207369#2 -58207369#1 28549731#3 28549731#4 28549731#6 28549731#7 28549731#8 28549731#9 345230672#0 345230672#1" />
	</vehicle>
	<vehicle id="43" depart="7347.09" type="Bus">
		 <route edges="-28549731#12 -28549731#11 -28549731#10 -28549731#9 -28549731#8 -28549731#7 -28549731#6 -28549731#4 -28549731#3 -28549731#2 -28549731#1 -28549731#0" />
	</vehicle>
	<vehicle id="44" depart="8347.49" type="Bus">
		 <route edges="-28549731#12 -28549731#11 -28549731#10 -28549731#9 -28549731#8 -28549731#7 -28549731#6 -28549731#4 -28549731#3 58207369#1 58207369#2" />
	</vehicle>
	<vehicle id="45" depart="8738.77" type="Car">
		 <route edges="-28549731#12 -28549731#11 -28549731#10 -28549731#9 -28549731#8 -28549731#7 -28549731#6 -28549731#4 -28549731#3 58207369#1 58207369#2" />
	</vehicle>
	<vehicle id="46" depart="9047.35" type="Car">
		 <route edges="28549731#0 28549731#1 28549731#2 28549731#3 28549731#4 28549731#6 28549731#7 28549731#8 28549731#9 345230672#0 345230672#1" />
	</vehicle>
	<vehicle id="47" depart="9349.82" type="electricCar">
		 <route edges="-28549731#12 -28549731#11 -28549731#10 -28549731#9 -28549731#8 -28549731#7 -28549731#6 -28549731#4 -28549731#3 58207369#1 58207369#2" />
	</vehicle>
	<vehicle id="48" depart="9552.81" type="Car">
		 <route edges="28549731#0 28549731#1 28549731#2 28549731#3 28549731#4 28549731#6 28549731#7 28549731#8 28549731#9 345230672#0 345230672#1" />
	</vehicle>
	<vehicle id="49" depart="9678.0" type="Car">
		 <route edges="-345230672#1 -345230672#0 -28549731#9 -28549731#8 -28549731#7 -28549731#6 -28549731#4 -28549731#3 58207369#1 58207369#2" />
	</vehicle>
	<vehicle id="50" depart="9701.94" type="Car">
		 <route edges="28549731#0 28549731#1 28549731#2 28549731#3 28549731#4 28549731#6 28549731#7 28549731#8 28549731#9 28549731#10 28549731#11 28549731#12" />
	</vehicle>
	<vehicle id="51" depart="9831.98" type="Truck">
		 <route edges="-28549731#12 -28549731#11 -28549731#10 -28549731#9 -28549731#8 -28549731#7 -28549731#6 -28549731#4 -28549731#3 -28549731#2 -28549731#1 -28549731#0" />
	</vehicle>
	<vehicle id="52" depart="10160.41" type="Car">
		 <route edges="28549731#0 28549731#1 28549731#2 28549731#3 28549731#4 28549731#6 28549731#7 28549731#8 28549731#9 28549731#10 28549731#11 28549731#12" />
	</vehicle>
	<vehicle id="53" depart="10396.08" type="Car">
		 <route edges="-28549731#12 -28549731#11 -28549731#10 -28549731#9 -28549731#8 -28549731#7 -28549731#6 -28549731#4 -28549731#3 -28549731#2 -28549731#1 -28549731#0" />
	</vehicle>
	<vehicle id="54" depart="10425.14" type="Car">
		 <route edges="-28549731#12 -28549731#11 -28549731#10 -28549731#9 -28549731#8 -28549731#7 -28549731#6 -28549731#4 -28549731#3 58207369#1 58207369#2" />
	</vehicle>
	<vehicle id="55" depart="10532.71" type="Car">
		 <route edges="-28549731#12 -28549731#11 -28549731#10 -28549731#9 -28549731#8 -28549731#7 -28549731#6 -28549731#4 -28549731#3 -28549731#2 -28549731#1 -28549731#0" />
	</vehicle>
	<vehicle id="56" depart="10791.62" type="Car">
		 <route edges="-345230672#1 -345230672#0 -28549731#9 -28549731#8 -28549731#7 -28549731#6 -28549731#4 -28549731#3 58207369#1 58207369#2" />
	</vehicle>
	<vehicle id="57" depart="10973.37" type="Car">
		 <route edges="-58207369#2 -58207369#1 28549731#3 28549731#4 28549731#6 28549731#7 28549731#8 28549731#9 345230672#0 345230672#1" />
	</vehicle>
	<vehicle id="58" depart="11057.97" type="Car">
		 <route edges="-345230672#1 -345230672#0 -28549731#9 -28549731#8 -28549731#7 -28549731#6 -28549731#4 -28549731#3 -28549731#2 -28549731#1 -28549731#0" />
	</vehicle>
	<vehicle id="59" depart="11121.32" type="Bus">
		 <route edges="-58207369#2 -58207369#1 28549731#3 28549731#4 28549731#6 28549731#7 28549731#8 28549731#9 28549731#10 28549731#11 28549731#12" />
	</vehicle>
	<vehicle id="60" depart="11355.69" type="Car">
		 <route edges="-58207369#2 -58207369#1 28549731#3 28549731#4 28549731#6 28549731#7 28549731#8 28549731#9 345230672#0 345230672#1" />
	</vehicle>
	<vehicle id="61" depart="12466.22" type="Car">
		 <route edges="-58207369#2 -58207369#1 28549731#3 28549731#4 28549731#6 28549731#7 28549731#8 28549731#9 28549731#10 28549731#11 28549731#12" />
	</vehicle>
	<vehicle id="62" depart="12896.46" type="Car">
		 <route edges="28549731#0 28549731#1 28549731#2 28549731#3 28549731#4 28549731#6 28549731#7 28549731#8 28549731#9 345230672#0 345230672#1" />
	</vehicle>
	<vehicle id="63" depart="13054.13" type="Truck">
		 <route edges="-28549731#12 -28549731#11 -28549731#10 -28549731#9 -28549731#8 -28549731#7 -28549731#6 -28549731#4 -28549731#3 -28549731#2 -28549731#1 -28549731#0" />
	</vehicle>
	<vehicle id="64" depart="13221.49" type="Car">
		 <route edges="-58207369#2 -58207369#1 28549731#3 28549731#4 28549731#6 28549731#7 28549731#8 28549731#9 345230672#0 345230672#1" />
	</vehicle>
	<vehicle id="65" depart="13708.12" type="Bus">
		 <route edges="28549731#0 28549731#1 28549731#2 28549731#3 28549731#4 28549731#6 28549731#7 28549731#8 28549731#9 28549731#10 28549731#11 28549731#12" />
	</vehicle>
	<vehicle id="66" depart="13789.21" type="Bus">
		 <route edges="-28549731#12 -28549731#11 -28549731#10 -28549731#9 -28549731#8 -28549731#7 -28549731#6 -28549731#4 -28549731#3 58207369#1 58207369#2" />
	</vehicle>
	<vehicle id="67" depart="13834.94" type="Car">
		 <route edges="-28549731#12 -28549731#11 -28549731#10 -28549731#9 -28549731#8 -28549731#7 -28549731#6 -28549731#4 -28549731#3 -28549731#2 -28549731#1 -28549731#0" />
	</vehicle>
	<vehicle id="68" depart="14574.25" type="Car">
		 <route edges="28549731#0 28549731#1 28549731#2 28549731#3 28549731#4 28549731#6 28549731#7 28549731#8 28549731#9 28549731#10 28549731#11 28549731#12" />
	</vehicle>
	<vehicle id="69" depart="14575.89" type="Truck">
		 <route edges="-345230672#1 -345230672#0 -28549731#9 -28549731#8 -28549731#7 -28549731#6 -28549731#4 -28549731#3 58207369#1 58207369#2" />
	</vehicle>
	<vehicle id="70" depart="14672.88" type="Car">
		 <route edges="-58207369#2 -58207369#1 28549731#3 28549731#4 28549731#6 28549731#7 28549731#8 28549731#9 345230672#0 345230672#1" />
	</vehicle>
	<vehicle id="71" depart="14861.07" type="Car">
		 <route edges="-345230672#1 -345230672#0 -28549731#9 -28549731#8 -28549731#7 -28549731#6 -28549731#4 -28549731#3 -28549731#2 -28549731#1 -28549731#0" />
	</vehicle>
	<vehicle id="72" depart="15105.31" type="Car">
		 <route edges="-58207369#2 -58207369#1 28549731#3 28549731#4 28549731#6 28549731#7 28549731#8 28549731#9 345230672#0 345230672#1" />
	</vehicle>
	<vehicle id="73" depart="15225.35" type="Truck">
		 <route edges="-58207369#2 -58207369#1 28549731#3 28549731#4 28549731#6 28549731#7 28549731#8 28549731#9 345230672#0 345230672#1" />
	</vehicle>
	<vehicle id="74" depart="15272.63" type="Car">
		 <route edges="-58207369#2 -58207369#1 28549731#3 28549731#4 28549731#6 28549731#7 28549731#8 28549731#9 345230672#0 345230672#1" />
	</vehicle>
	<vehicle id="75" depart="15307.35" type="Car">
		 <route edges="-58207369#2 -58207369#1 28549731#3 28549731#4 28549731#6 28549731#7 28549731#8 28549731#9 345230672#0 345230672#1" />
	</vehicle>
	<vehicle id="76" depart="15554.59" type="Car">
		 <route edges="-28549731#12 -28549731#11 -28549731#10 -28549731#9 -28549731#8 -28549731#7 -28549731#6 -28549731#4 -28549731#3 58207369#1 58207369#2" />
	</vehicle>
	<vehicle id="77" depart="15791.64" type="Car">
		 <route edges="-58207369#2 -58207369#1 28549731#3 28549731#4 28549731#6 28549731#7 28549731#8 28549731#9 345230672#0 345230672#1" />
	</vehicle>
	<vehicle id="78" depart="16106.03" type="Truck">
		 <route edges="-58207369#2 -58207369#1 28549731#3 28549731#4 28549731#6 28549731#7 28549731#8 28549731#9 28549731#10 28549731#11 28549731#12" />
	</vehicle>
	<vehicle id="79" depart="16805.78" type="Car">
		 <route edges="28549731#0 28549731#1 28549731#2 28549731#3 28549731#4 28549731#6 28549731#7 28549731#8 28549731#9 345230672#0 345230672#1" />
	</vehicle>
	<vehicle id="80" depart="16919.35" type="Car">
		 <route edges="-28549731#12 -28549731#11 -28549731#10 -28549731#9 -28549731#8 -28549731#7 -28549731#6 -28549731#4 -28549731#3 -28549731#2 -28549731#1 -28549731#0" />
	</vehicle>
	<vehicle id="81" depart="17289.52" type="Car">
		 <route edges="28549731#0 28549731#1 28549731#2 28549731#3 28549731#4 28549731#6 28549731#7 28549731#8 28549731#9 345230672#0 345230672#1" />
	</vehicle>
	<vehicle id="82" depart="17358.45" type="Bus">
		 <route edges="-345230672#1 -345230672#0 -28549731#9 -28549731#8 -28549731#7 -28549731#6 -28549731#4 -28549731#3 58207369#1 58207369#2" />
	</vehicle>
	<vehicle id="83" depart="17519.5" type="Bus">
		 <route edges="-58207369#2 -58207369#1 28549731#3 28549731#4 28549731#6 28549731#7 28549731#8 28549731#9 28549731#10 28549731#11 28549731#12" />
	</vehicle>
	<vehicle id="84" depart="17776.85" type="Truck">
		 <route edges="-28549731#12 -28549731#11 -28549731#10 -28549731#9 -28549731#8 -28549731#7 -28549731#6 -28549731#4 -28549731#3 -28549731#2 -28549731#1 -28549731#0" />
	</vehicle>
	<vehicle id="85" depart="17895.73" type="Car">
		 <route edges="28549731#0 28549731#1 28549731#2 28549731#3 28549731#4 28549731#6 28549731#7 28549731#8 28549731#9 28549731#10 28549731#11 28549731#12" />
	</vehicle>
	<vehicle id="86" depart="17939.42" type="Car">
		 <route edges="-58207369#2 -58207369#1 28549731#3 28549731#4 28549731#6 28549731#7 28549731#8 28549731#9 28549731#10 28549731#11 28549731#12" />
	</vehicle>
	<vehicle id="87" depart="18120.74" type="Bus">
		 <route edges="-58207369#2 -58207369#1 28549731#3 28549731#4 28549731#6 28549731#7 28549731#8 28549731#9 28549731#10 28549731#11 28549731#12" />
	</vehicle>
	<vehicle id="88" depart="18218.08" type="Car">
		 <route edges="-28549731#12 -28549731#11 -28549731#10 -28549731#9 -28549731#8 -28549731#7 -28549731#6 -28549731#4 -28549731#3 -28549731#2 -28549731#1 -28549731#0" />
	</vehicle>
	<vehicle id="89" depart="18238.55" type="Car">
		 <route edges="28549731#0 28549731#1 28549731#2 28549731#3 28549731#4 28549731#6 28549731#7 28549731#8 28549731#9 28549731#10 28549731#11 28549731#12" />
	</vehicle>
	<vehicle id="90" depart="18298.39" type="Car">
		 <route edges="-28549731#12 -28549731#11 -28549731#10 -28549731#9 -28549731#8 -28549731#7 -28549731#6 -28549731#4 -28549731#3 58207369#1 58207369#2" />
	</vehicle>
	<vehicle id="91" depart="18318.75" type="Bus">
		 <route edges="-58207369#2 -58207369#1 28549731#3 28549731#4 28549731#6 28549731#7 28549731#8 28549731#9 28549731#10 28549731#11 28549731#12" />
	</vehicle>
	<vehicle id="92" depart="18321.72" type="Bus">
		 <route edges="-28549731#12 -28549731#11 -28549731#10 -28549731#9 -28549731#8 -28549731#7 -28549731#6 -28549731#4 -28549731#3 -28549731#2 -28549731#1 -28549731#0" />
	</vehicle>
	<vehicle id="93" depart="18370.18" type="Car">
		 <route edges="28549731#0 28549731#1 28549731#2 28549731#3 28549731#4 28549731#6 28549731#7 28549731#8 28549731#9 345230672#0 345230672#1" />
	</vehicle>
	<vehicle id="94" depart="18399.58" type="Truck">
		 <route edges="-28549731#12 -28549731#11 -28549731#10 -28549731#9 -28549731#8 -28549731#7 -28549731#6 -28549731#4 -28549731#3 58207369#1 58207369#2" />
	</vehicle>
	<vehicle id="95" depart="18588.87" type="Car">
		 <route edges="28549731#0 28549731#1 28549731#2 28549731#3 28549731#4 28549731#6 28549731#7 28549731#8 28549731#9 345230672#0 345230672#1" />
	</vehicle>
	<vehicle id="96" depart="18733.31" type="Car">
		 <route edges="28549731#0 28549731#1 28549731#2 28549731#3 28549731#4 28549731#6 28549731#7 28549731#8 28549731#9 28549731#10 28549731#11 28549731#12" />
	</vehicle>
	<vehicle id="97" depart="18878.88" type="Car">
		 <route edges="-58207369#2 -58207369#1 28549731#3 28549731#4 28549731#6 28549731#7 28549731#8 28549731#9 345230672#0 345230672#1" />
	</vehicle>
	<vehicle id="98" depart="18895.97" type="Car">
		 <route edges="-58207369#2 -58207369#1 28549731#3 28549731#4 28549731#6 28549731#7 28549731#8 28549731#9 345230672#0 345230672#1" />
	</vehicle>
	<vehicle id="99" depart="18909.22" type="Car">
		 <route edges="-58207369#2 -58207369#1 28549731#3 28549731#4 28549731#6 28549731#7 28549731#8 28549731#9 345230672#0 345230672#1" />
	</vehicle>
	<vehicle id="100" depart="18989.55" type="Car">
		 <route edges="-345230672#1 -345230672#0 -28549731#9 -28549731#8 -28549731#7 -28549731#6 -28549731#4 -28549731#3 58207369#1 58207369#2" />
	</vehicle>
	<vehicle id="101" depart="19004.56" type="Car">
		 <route edges="-58207369#2 -58207369#1 28549731#3 28549731#4 28549731#6 28549731#7 28549731#8 28549731#9 345230672#0 345230672#1" />
	</vehicle>
	<vehicle id="102" depart="19248.22" type="Car">
		 <route edges="-28549731#12 -28549731#11 -28549731#10 -28549731#9 -28549731#8 -28549731#7 -28549731#6 -28549731#4 -28549731#3 58207369#1 58207369#2" />
	</vehicle>
	<vehicle id="103" depart="19306.6" type="Car">
		 <route edges="28549731#0 28549731#1 28549731#2 28549731#3 28549731#4 28549731#6 28549731#7 28549731#8 28549731#9 28549731#10 28549731#11 28549731#12" />
	</vehicle>
	<vehicle id="104" depart="19418.34" type="Car">
		 <route edges="-345230672#1 -345230672#0 -28549731#9 -28549731#8 -28549731#7 -28549731#6 -28549731#4 -28549731#3 58207369#1 58207369#2" />
	</vehicle>
	<vehicle id="105" depart="19463.27" type="Bus">
		 <route edges="-58207369#2 -58207369#1 28549731#3 28549731#4 28549731#6 28549731#7 28549731#8 28549731#9 28549731#10 28549731#11 28549731#12" />
	</vehicle>
	<vehicle id="106" depart="19588.9" type="Car">
		 <route edges="-28549731#12 -28549731#11 -28549731#10 -28549731#9 -28549731#8 -28549731#7 -28549731#6 -28549731#4 -28549731#3 -28549731#2 -28549731#1 -28549731#0" />
	</vehicle>
	<vehicle id="107" depart="19903.56" type="Car">
		 <route edges="-58207369#2 -58207369#1 28549731#3 28549731#4 28549731#6 28549731#7 28549731#8 28549731#9 28549731#10 28549731#11 28549731#12" />
	</vehicle>
	<vehicle id="108" depart="20005.14" type="Car">
		 <route edges="-345230672#1 -345230672#0 -28549731#9 -28549731#8 -28549731#7 -28549731#6 -28549731#4 -28549731#3 58207369#1 58207369#2" />
	</vehicle>
	<vehicle id="109" depart="20082.04" type="Car">
		 <route edges="-58207369#2 -58207369#1 28549731#3 28549731#4 28549731#6 28549731#7 28549731#8 28549731#9 345230672#0 345230672#1" />
	</vehicle>
	<vehicle id="110" depart="20155.27" type="Car">
		 <route edges="-345230672#1 -345230672#0 -28549731#9 -28549731#8 -28549731#7 -28549731#6 -28549731#4 -28549731#3 58207369#1 58207369#2" />
	</vehicle>
	<vehicle id="111" depart="20168.52" type="Car">
		 <route edges="28549731#0 28549731#1 28549731#2 28549731#3 28549731#4 28549731#6 28549731#7 28549731#8 28549731#9 345230672#0 345230672#1" />
	</vehicle>
	<vehicle id="112" depart="20182.39" type="Car">
		 <route edges="-58207369#2 -58207369#1 28549731#3 28549731#4 28549731#6 28549731#7 28549731#8 28549731#9 28549731#10 28549731#11 28549731#12" />
	</vehicle>
	<vehicle id="113" depart="20189.68" type="Car">
		 <route edges="-58207369#2 -58207369#1 28549731#3 28549731#4 28549731#6 28549731#7 28549731#8 28549731#9 28549731#10 28549731#11 28549731#12" />
	</vehicle>
	<vehicle id="114" depart="20240.61" type="Bus">
		 <route edges="28549731#0 28549731#1 28549731#2 28549731#3 28549731#4 28549731#6 28549731#7 28549731#8 28549731#9 345230672#0 345230672#1" />
	</vehicle>
	<vehicle id="115" depart="20256.52" type="Car">
		 <route edges="-58207369#2 -58207369#1 28549731#3 28549731#4 28549731#6 28549731#7 28549731#8 28549731#9 28549731#10 28549731#11 28549731#12" />
	</vehicle>
	<vehicle id="116" depart="20265.91" type="Car">
		 <route edges="28549731#0 28549731#1 28549731#2 28549731#3 28549731#4 28549731#6 28549731#7 28549731#8 28549731#9 345230672#0 345230672#1" />
	</vehicle>
	<vehicle id="117" depart="20291.41" type="Bus">
		 <route edges="28549731#0 28549731#1 28549731#2 28549731#3 28549731#4 28549731#6 28549731#7 28549731#8 28549731#9 345230672#0 345230672#1" />
	</vehicle>
	<vehicle id="118" depart="20335.38" type="Car">
		 <route edges="-58207369#2 -58207369#1 28549731#3 28549731#4 28549731#6 28549731#7 28549731#8 28549731#9 345230672#0 345230672#1" />
	</vehicle>
	<vehicle id="119" depart="20354.01" type="Car">
		 <route edges="28549731#0 28549731#1 28549731#2 28549731#3 28549731#4 28549731#6 28549731#7 28549731#8 28549731#9 345230672#0 345230672#1" />
	</vehicle>
	<vehicle id="120" depart="20369.09" type="Car">
		 <route edges="-58207369#2 -58207369#1 28549731#3 28549731#4 28549731#6 28549731#7 28549731#8 28549731#9 345230672#0 345230672#1" />
	</vehicle>
	<vehicle id="121" depart="20402.19" type="Car">
		 <route edges="28549731#0 28549731#1 28549731#2 28549731#3 28549731#4 28549731#6 28549731#7 28549731#8 28549731#9 28549731#10 28549731#11 28549731#12" />
	</vehicle>
	<vehicle id="122" depart="20520.14" type="Car">
		 <route edges="28549731#0 28549731#1 28549731#2 28549731#3 28549731#4 28549731#6 28549731#7 28549731#8 28549731#9 28549731#10 28549731#11 28549731#12" />
	</vehicle>
	<vehicle id="123" depart="20532.22" type="Car">
		 <route edges="28549731#0 28549731#1 28549731#2 28549731#3 28549731#4 28549731#6 28549731#7 28549731#8 28549731#9 345230672#0 345230672#1" />
	</vehicle>
	<vehicle id="124" depart="20593.89" type="Car">
		 <route edges="28549731#0 28549731#1 28549731#2 28549731#3 28549731#4 28549731#6 28549731#7 28549731#8 28549731#9 345230672#0 345230672#1" />
	</vehicle>
	<vehicle id="125" depart="20748.79" type="Bus">
		 <route edges="-58207369#2 -58207369#1 28549731#3 28549731#4 28549731#6 28549731#7 28549731#8 28549731#9 28549731#10 28549731#11 28549731#12" />
	</vehicle>
	<vehicle id="126" depart="20949.62" type="Car">
		 <route edges="28549731#0 28549731#1 28549731#2 28549731#3 28549731#4 28549731#6 28549731#7 28549731#8 28549731#9 345230672#0 345230672#1" />
	</vehicle>
	<vehicle id="127" depart="20952.11" type="Bus">
		 <route edges="28549731#0 28549731#1 28549731#2 28549731#3 28549731#4 28549731#6 28549731#7 28549731#8 28549731#9 345230672#0 345230672#1" />
	</vehicle>
	<vehicle id="128" depart="21008.11" type="Car">
		 <route edges="-58207369#2 -58207369#1 28549731#3 28549731#4 28549731#6 28549731#7 28549731#8 28549731#9 345230672#0 345230672#1" />
	</vehicle>
	<vehicle id="129" depart="21082.86" type="Bus">
		 <route edges="-58207369#2 -58207369#1 28549731#3 28549731#4 28549731#6 28549731#7 28549731#8 28549731#9 28549731#10 28549731#11 28549731#12" />
	</vehicle>
	<vehicle id="130" depart="21087.71" type="Car">
		 <route edges="28549731#0 28549731#1 28549731#2 28549731#3 28549731#4 28549731#6 28549731#7 28549731#8 28549731#9 28549731#10 28549731#11 28549731#12" />
	</vehicle>
	<vehicle id="131" depart="21188.9" type="Bus">
		 <route edges="28549731#0 28549731#1 28549731#2 28549731#3 28549731#4 28549731#6 28549731#7 28549731#8 28549731#9 345230672#0 345230672#1" />
	</vehicle>
	<vehicle id="132" depart="21198.9" type="Car">
		 <route edges="-58207369#2 -58207369#1 28549731#3 28549731#4 28549731#6 28549731#7 28549731#8 28549731#9 345230672#0 345230672#1" />
	</vehicle>
	<vehicle id="133" depart="21236.55" type="Car">
		 <route edges="-58207369#2 -58207369#1 28549731#3 28549731#4 28549731#6 28549731#7 28549731#8 28549731#9 345230672#0 345230672#1" />
	</vehicle>
	<vehicle id="134" depart="21386.85" type="Car">
		 <route edges="-58207369#2 -58207369#1 28549731#3 28549731#4 28549731#6 28549731#7 28549731#8 28549731#9 28549731#10 28549731#11 28549731#12" />
	</vehicle>
	<vehicle id="135" depart="21437.38" type="Car">