<routes xmlns:xsi="http://www.w3.org/2001/XMLSchema-instance" xsi:noNamespaceSchemaLocation="http://sumo.dlr.de/xsd/routes_file.xsd">
	<vType id="Car" emissionClass="HBEFA3/PC_G_EU4" accel="3.0" decel="6.0" length="5.0" minGap="2.5" maxSpeed="50.0" />
	<vType id="Bus" emissionClass="HBEFA3/LDV_D_EU4" accel="2.0" decel="5.0" length="7.0" minGap="3.5" maxSpeed="40.0" color="red" guiShape="bus" />
	<vType id="Truck" emissionClass="HBEFA3/HDV_D_EU4" accel="1.0" decel="5.0" length="7.0" minGap="3.5" maxSpeed="40.0" color="blue" guiShape="truck" />
	<vType id="Motor_Bike" emissionClass="HBEFA3/PC_G_EU4" accel="2.0" decel="4.0" length="3.0" minGap="2.5" maxSpeed="50.0" color="165,105,189" guiShape="motorcycle" />
	<vType id="electricCar" emissionClass="Zero" accel="3.0" decel="6.0" length="5.0" minGap="2.5" maxSpeed="50.0" color="green">
		 <param key="has.battery.device" value="true" /> 
		 <param key="device.battery.capacity" value="2000" /> 
		 <param key="maximumPower" value="1000" /> 
		 <param key="frontSurfaceArea" value="5" /> 
		 <param key="airDragCoefficient" value="0.6" /> 
		 <param key="rotatingMass" value="100" /> 
		 <param key="radialDragCoefficient" value="0.5" /> 
		 <param key="rollDragCoefficient" value="0.01" /> 
		 <param key="constantPowerIntake" value="100" /> 
		 <param key="propulsionEfficiency" value="0.9" /> 
		 <param key="recuperationEfficiency" value="0.9" /> 
		 <param key="stoppingThreshold" value="0.1" /> 
		 <param key="device.battery.maximumChargeRate" value="150000" /> 
	</vType>
	<vehicle id="1" depart="286.97" type="Bus">
		 <route edges="28549731#0 28549731#1 28549731#2 28549731#3 28549731#4 28549731#6 28549731#7 28549731#8 28549731#9 345230672#0 345230672#1" />
	</vehicle>
	<vehicle id="2" depart="495.04" type="Car">
		 <route edges="-28549731#12 -28549731#11 -28549731#10 -28549731#9 -28549731#8 -28549731#7 -28549731#6 -28549731#4 -28549731#3 -28549731#2 -28549731#1 -28549731#0" />
	</vehicle>
	<vehicle id="3" depart="763.97" type="Truck">
		 <route edges="28549731#0 28549731#1 28549731#2 28549731#3 28549731#4 28549731#6 28549731#7 28549731#8 28549731#9 345230672#0 345230672#1" />
	</vehicle>
	<vehicle id="4" depart="2449.76" type="Car">
		 <route edges="-58207369#2 -58207369#1 28549731#3 28549731#4 28549731#6 28549731#7 28549731#8 28549731#9 28549731#10 28549731#11 28549731#12" />
	</vehicle>
	<vehicle id="5" depart="3256.69" type="Car">
		 <route edges="-58207369#2 -58207369#1 28549731#3 28549731#4 28549731#6 28549731#7 28549731#8 28549731#9 345230672#0 345230672#1" />
	</vehicle>
	<vehicle id="6" depart="3549.29" type="Car">
		 <route edges="-28549731#12 -28549731#11 -28549731#10 -28549731#9 -28549731#8 -28549731#7 -28549731#6 -28549731#4 -28549731#3 -28549731#2 -28549731#1 -28549731#0" />
	</vehicle>
	<vehicle id="7" depart="3919.43" type="Car">
		 <route edges="-58207369#2 -58207369#1 28549731#3 28549731#4 28549731#6 28549731#7 28549731#8 28549731#9 345230672#0 345230672#1" />
	</vehicle>
	<vehicle id="8" depart="4463.73" type="Car">
		 <route edges="-58207369#2 -58207369#1 28549731#3 28549731#4 28549731#6 28549731#7 28549731#8 28549731#9 28549731#10 28549731#11 28549731#12" />
	</vehicle>
	<vehicle id="9" depart="4614.83" type="Bus">
		 <route edges="28549731#0 28549731#1 28549731#2 28549731#3 28549731#4 28549731#6 28549731#7 28549731#8 28549731#9 345230672#0 345230672#1" />
	</vehicle>
	<vehicle id="10" depart="4839.51" type="Car">
		 <route edges="-28549731#12 -28549731#11 -28549731#10 -28549731#9 -28549731#8 -28549731#7 -28549731#6 -28549731#4 -28549731#3 58207369#1 58207369#2" />
	</vehicle>
	<vehicle id="11" depart="4944.2" type="Car">
		 <route edges="28549731#0 28549731#1 28549731#2 28549731#3 28549731#4 28549731#6 28549731#7 28549731#8 28549731#9 345230672#0 345230672#1" />
	</vehicle>
	<vehicle id="12" depart="5255.58" type="Car">
		 <route edges="-28549731#12 -28549731#11 -28549731#10 -28549731#9 -28549731#8 -28549731#7 -28549731#6 -28549731#4 -28549731#3 58207369#1 58207369#2" />
	</vehicle>
	<vehicle id="13" depart="5375.11" type="Truck">
		 <route edges="-345230672#1 -345230672#0 -28549731#9 -28549731#8 -28549731#7 -28549731#6 -28549731#4 -28549731#3 58207369#1 58207369#2" />
	</vehicle>
	<vehicle id="14" depart="5504.8" type="Car">
		 <route edges="-58207369#2 -58207369#1 28549731#3 28549731#4 28549731#6 28549731#7 28549731#8 28549731#9 28549731#10 28549731#11 28549731#12" />
	</vehicle>
	<vehicle id="15" depart="5732.59" type="Truck">
		 <route edges="-345230672#1 -345230672#0 -28549731#9 -28549731#8 -28549731#7 -28549731#6 -28549731#4 -28549731#3 -28549731#2 -28549731#1 -28549731#0" />
	</vehicle>
	<vehicle id="16" depart="5799.64" type="Car">
		 <route edges="28549731#0 28549731#1 28549731#2 28549731#3 28549731#4 28549731#6 28549731#7 28549731#8 28549731#9 345230672#0 345230672#1" />
	</vehicle>
	<vehicle id="17" depart="5930.03" type="Car">
		 <route edges="-28549731#12 -28549731#11 -28549731#10 -28549731#9 -28549731#8 -28549731#7 -28549731#6 -28549731#4 -28549731#3 -28549731#2 -28549731#1 -28549731#0" />
	</vehicle>
	<vehicle id="18" depart="6112.6" type="Bus">
		 <route edges="28549731#0 28549731#1 28549731#2 28549731#3 28549731#4 28549731#6 28549731#7 28549731#8 28549731#9 345230672#0 345230672#1" />
	</vehicle>
	<vehicle id="19" depart="6159.56" type="Car">
		 <route edges="28549731#0 28549731#1 28549731#2 28549731#3 28549731#4 28549731#6 28549731#7 28549731#8 28549731#9 345230672#0 345230672#1" />
	</vehicle>
	<vehicle id="20" depart="6441.22" type="Truck">
		 <route edges="-58207369#2 -58207369#1 28549731#3 28549731#4 28549731#6 28549731#7 28549731#8 28549731#9 28549731#10 28549731#11 28549731#12" />
	</vehicle>
	<vehicle id="21" depart="6899.2" type="Truck">
		 <route edges="28549731#0 28549731#1 28549731#2 28549731#3 28549731#4 28549731#6 28549731#7 28549731#8 28549731#9 28549731#10 28549731#11 28549731#12" />
	</vehicle>
	<vehicle id="22" depart="6917.28" type="Car">
		 <route edges="-58207369#2 -58207369#1 28549731#3 28549731#4 28549731#6 28549731#7 28549731#8 28549731#9 28549731#10 28549731#11 28549731#12" />
	</vehicle>
	<vehicle id="23" depart="7208.59" type="Truck">
		 <route edges="-58207369#2 -58207369#1 28549731#3 28549731#4 28549731#6 28549731#7 28549731#8 28549731#9 28549731#10 28549731#11 28549731#12" />
	</vehicle>
	<vehicle id="24" depart="7225.91" type="Car">
		 <route edges="-28549731#12 -28549731#11 -28549731#10 -28549731#9 -28549731#8 -28549731#7 -28549731#6 -28549731#4 -28549731#3 -28549731#2 -28549731#1 -28549731#0" />
	</vehicle>
	<vehicle id="25" depart="7290.5" type="Car">
		 <route edges="28549731#0 28549731#1 28549731#2 28549731#3 28549731#4 28549731#6 28549731#7 28549731#8 28549731#9 28549731#10 28549731#11 28549731#12" />
	</vehicle>
	<vehicle id="26" depart="7491.61" type="Car">
		 <route edges="-345230672#1 -345230672#0 -28549731#9 -28549731#8 -28549731#7 -28549731#6 -28549731#4 -28549731#3 -28549731#2 -28549731#1 -28549731#0" />
	</vehicle>
	<vehicle id="27" depart="7845.51" type="Car">
		 <route edges="28549731#0 28549731#1 28549731#2 28549731#3 28549731#4 28549731#6 28549731#7 28549731#8 28549731#9 345230672#0 345230672#1" />
	</vehicle>
	<vehicle id="28" depart="7921.34" type="Truck">
		 <route edges="28549731#0 28549731#1 28549731#2 28549731#3 28549731#4 28549731#6 28549731#7 28549731#8 28549731#9 345230672#0 345230672#1" />
	</vehicle>
	<vehicle id="29" depart="8519.29" type="Truck">
		 <route edges="-58207369#2 -58207369#1 28549731#3 28549731#4 28549731#6 28549731#7 28549731#8 28549731#9 28549731#10 28549731#11 28549731#12" />
	</vehicle>
	<vehicle id="30" depart="8594.41" type="Bus">
		 <route edges="-28549731#12 -28549731#11 -28549731#10 -28549731#9 -28549731#8 -28549731#7 -28549731#6 -28549731#4 -28549731#3 -28549731#2 -28549731#1 -28549731#0" />
	</vehicle>
	<vehicle id="31" depart="8659.79" type="Car">
		 <route edges="28549731#0 28549731#1 28549731#2 28549731#3 28549731#4 28549731#6 28549731#7 28549731#8 28549731#9 28549731#10 28549731#11 28549731#12" />
	</vehicle>
	<vehicle id="32" depart="8692.15" type="Bus">
		 <route edges="-28549731#12 -28549731#11 -28549731#10 -28549731#9 -28549731#8 -28549731#7 -28549731#6 -28549731#4 -28549731#3 -28549731#2 -28549731#1 -28549731#0" />
	</vehicle>
	<vehicle id="33" depart="8720.15" type="Car">
		 <route edges="-58207369#2 -58207369#1 28549731#3 28549731#4 28549731#6 28549731#7 28549731#8 28549731#9 28549731#10 28549731#11 28549731#12" />
	</vehicle>
	<vehicle id="34" depart="8783.13" type="Bus">
		 <route edges="-345230672#1 -345230672#0 -28549731#9 -28549731#8 -28549731#7 -28549731#6 -28549731#4 -28549731#3 58207369#1 58207369#2" />
	</vehicle>
	<vehicle id="35" depart="8934.29" type="Truck">
		 <route edges="28549731#0 28549731#1 28549731#2 28549731#3 28549731#4 28549731#6 28549731#7 28549731#8 28549731#9 345230672#0 345230672#1" />
	</vehicle>
	<vehicle id="36" depart="8957.97" type="Car">
		 <route edges="-28549731#12 -28549731#11 -28549731#10 -28549731#9 -28549731#8 -28549731#7 -28549731#6 -28549731#4 -28549731#3 -28549731#2 -28549731#1 -28549731#0" />
	</vehicle>
	<vehicle id="37" depart="9020.4" type="Truck">
		 <route edges="-58207369#2 -58207369#1 28549731#3 28549731#4 28549731#6 28549731#7 28549731#8 28549731#9 28549731#10 28549731#11 28549731#12" />
	</vehicle>
	<vehicle id="38" depart="9047.76" type="Car">
		 <route edges="-345230672#1 -345230672#0 -28549731#9 -28549731#8 -28549731#7 -28549731#6 -28549731#4 -28549731#3 58207369#1 58207369#2" />
	</vehicle>
	<vehicle id="39" depart="9119.77" type="Car">
		 <route edges="28549731#0 28549731#1 28549731#2 28549731#3 28549731#4 28549731#6 28549731#7 28549731#8 28549731#9 345230672#0 345230672#1" />
	</vehicle>
	<vehicle id="40" depart="9169.49" type="Car">
		 <route edges="-28549731#12 -28549731#11 -28549731#10 -28549731#9 -28549731#8 -28549731#7 -28549731#6 -28549731#4 -28549731#3 -28549731#2 -28549731#1 -28549731#0" />
	</vehicle>
	<vehicle id="41" depart="9202.05" type="Car">
		 <route edges="-58207369#2 -58207369#1 28549731#3 28549731#4 28549731#6 28549731#7 28549731#8 28549731#9 28549731#10 28549731#11 28549731#12" />
	</vehicle>
	<vehicle id="42" depart="9238.1" type="Truck">
		 <route edges="-345230672#1 -345230672#0 -28549731#9 -28549731#8 -28549731#7 -28549731#6 -28549731#4 -28549731#3 -28549731#2 -28549731#1 -28549731#0" />
	</vehicle>
	<vehicle id="43" depart="9264.37" type="Car">
		 <route edges="-58207369#2 -58207369#1 28549731#3 28549731#4 28549731#6 28549731#7 28549731#8 28549731#9 345230672#0 345230672#1" />
	</vehicle>
	<vehicle id="44" depart="9337.17" type="Truck">
		 <route edges="-28549731#12 -28549731#11 -28549731#10 -28549731#9 -28549731#8 -28549731#7 -28549731#6 -28549731#4 -28549731#3 58207369#1 58207369#2" />
	</vehicle>
	<vehicle id="45" depart="9339.42" type="Car">
		 <route edges="-58207369#2 -58207369#1 28549731#3 28549731#4 28549731#6 28549731#7 28549731#8 28549731#9 345230672#0 345230672#1" />
	</vehicle>
	<vehicle id="46" depart="9363.29" type="Car">
		 <route edges="-58207369#2 -58207369#1 28549731#3 28549731#4 28549731#6 28549731#7 28549731#8 28549731#9 28549731#10 28549731#11 28549731#12" />
	</vehicle>
	<vehicle id="47" depart="9549.41" type="Car">
		 <route edges="-58207369#2 -58207369#1 28549731#3 28549731#4 28549731#6 28549731#7 28549731#8 28549731#9 345230672#0 345230672#1" />
	</vehicle>
	<vehicle id="48" depart="9698.91" type="Bus">
		 <route edges="-58207369#2 -58207369#1 28549731#3 28549731#4 28549731#6 28549731#7 28549731#8 28549731#9 345230672#0 345230672#1" />
	</vehicle>
	<vehicle id="49" depart="9702.59" type="Car">
		 <route edges="-58207369#2 -58207369#1 28549731#3 28549731#4 28549731#6 28549731#7 28549731#8 28549731#9 28549731#10 28549731#11 28549731#12" />
	</vehicle>
	<vehicle id="50" depart="9808.58" type="Car">
		 <route edges="28549731#0 28549731#1 28549731#2 28549731#3 28549731#4 28549731#6 28549731#7 28549731#8 28549731#9 345230672#0 345230672#1" />
	</vehicle>
	<vehicle id="51" depart="9883.95" type="Car">
		 <route edges="28549731#0 28549731#1 28549731#2 28549731#3 28549731#4 28549731#6 28549731#7 28549731#8 28549731#9 28549731#10 28549731#11 28549731#12" />
	</vehicle>
	<vehicle id="52" depart="10069.82" type="Car">
		 <route edges="28549731#0 28549731#1 28549731#2 28549731#3 28549731#4 28549731#6 28549731#7 28549731#8 28549731#9 28549731#10 28549731#11 28549731#12" />
	</vehicle>
	<vehicle id="53" depart="10071.77" type="Car">
		 <route edges="-345230672#1 -345230672#0 -28549731#9 -28549731#8 -28549731#7 -28549731#6 -28549731#4 -28549731#3 -28549731#2 -28549731#1 -28549731#0" />
	</vehicle>
	<vehicle id="54" depart="10151.2" type="Car">
		 <route edges="28549731#0 28549731#1 28549731#2 28549731#3 28549731#4 28549731#6 28549731#7 28549731#8 28549731#9 345230672#0 345230672#1" />
	</vehicle>
	<vehicle id="55" depart="10289.64" type="Bus">
		 <route edges="-28549731#12 -28549731#11 -28549731#10 -28549731#9 -28549731#8 -28549731#7 -28549731#6 -28549731#4 -28549731#3 -28549731#2 -28549731#1 -28549731#0" />
	</vehicle>
	<vehicle id="56" depart="10432.95" type="Car">
		 <route edges="28549731#0 28549731#1 28549731#2 28549731#3 28549731#4 28549731#6 28549731#7 28549731#8 28549731#9 28549731#10 28549731#11 28549731#12" />
	</vehicle>
	<vehicle id="57" depart="10475.84" type="Truck">
		 <route edges="-28549731#12 -28549731#11 -28549731#10 -28549731#9 -28549731#8 -28549731#7 -28549731#6 -28549731#4 -28549731#3 58207369#1 58207369#2" />
	</vehicle>
	<vehicle id="58" depart="10528.06" type="Truck">
		 <route edges="28549731#0 28549731#1 28549731#2 28549731#3 28549731#4 28549731#6 28549731#7 28549731#8 28549731#9 345230672#0 345230672#1" />
	</vehicle>
	<vehicle id="59" depart="10573.18" type="Car">
		 <route edges="-345230672#1 -345230672#0 -28549731#9 -28549731#8 -28549731#7 -28549731#6 -28549731#4 -28549731#3 -28549731#2 -28549731#1 -28549731#0" />
	</vehicle>
	<vehicle id="60" depart="10623.03" type="Truck">
		 <route edges="28549731#0 28549731#1 28549731#2 28549731#3 28549731#4 28549731#6 28549731#7 28549731#8 28549731#9 28549731#10 28549731#11 28549731#12" />
	</vehicle>
	<vehicle id="61" depart="10638.15" type="Bus">
		 <route edges="-28549731#12 -28549731#11 -28549731#10 -28549731#9 -28549731#8 -28549731#7 -28549731#6 -28549731#4 -28549731#3 -28549731#2 -28549731#1 -28549731#0" />
	</vehicle>
	<vehicle id="62" depart="10704.82" type="Bus">
		 <route edges="28549731#0 28549731#1 28549731#2 28549731#3 28549731#4 28549731#6 28549731#7 28549731#8 28549731#9 28549731#10 28549731#11 28549731#12" />
	</vehicle>
	<vehicle id="63" depart="10778.43" type="Car">
		 <route edges="28549731#0 28549731#1 28549731#2 28549731#3 28549731#4 28549731#6 28549731#7 28549731#8 28549731#9 345230672#0 345230672#1" />
	</vehicle>
	<vehicle id="64" depart="11011.06" type="Car">
		 <route edges="28549731#0 28549731#1 28549731#2 28549731#3 28549731#4 28549731#6 28549731#7 28549731#8 28549731#9 345230672#0 345230672#1" />
	</vehicle>
	<vehicle id="65" depart="11043.9" type="Bus">
		 <route edges="-345230672#1 -345230672#0 -28549731#9 -28549731#8 -28549731#7 -28549731#6 -28549731#4 -28549731#3 58207369#1 58207369#2" />
	</vehicle>
	<vehicle id="66" depart="11127.66" type="Truck">
		 <route edges="28549731#0 28549731#1 28549731#2 28549731#3 28549731#4 28549731#6 28549731#7 28549731#8 28549731#9 345230672#0 345230672#1" />
	</vehicle>
	<vehicle id="67" depart="11202.99" type="Car">
		 <route edges="-345230672#1 -345230672#0 -28549731#9 -28549731#8 -28549731#7 -28549731#6 -28549731#4 -28549731#3 -28549731#2 -28549731#1 -28549731#0" />
	</vehicle>
	<vehicle id="68" depart="11209.37" type="Car">
		 <route edges="28549731#0 28549731#1 28549731#2 28549731#3 28549731#4 28549731#6 28549731#7 28549731#8 28549731#9 345230672#0 345230672#1" />
	</vehicle>
	<vehicle id="69" depart="11252.41" type="Car">
		 <route edges="-345230672#1 -345230672#0 -28549731#9 -28549731#8 -28549731#7 -28549731#6 -28549731#4 -28549731#3 -28549731#2 -28549731#1 -28549731#0" />
	</vehicle>
	<vehicle id="70" depart="11424.86" type="Car">
		 <route edges="28549731#0 28549731#1 28549731#2 28549731#3 28549731#4 28549731#6 28549731#7 28549731#8 28549731#9 345230672#0 345230672#1" />
	</vehicle>
	<vehicle id="71" depart="11524.29" type="Car">
		 <route edges="-28549731#12 -28549731#11 -28549731#10 -28549731#9 -28549731#8 -28549731#7 -28549731#6 -28549731#4 -28549731#3 58207369#1 58207369#2" />
	</vehicle>
	<vehicle id="72" depart="11527.12" type="Truck">
		 <route edges="28549731#0 28549731#1 28549731#2 28549731#3 28549731#4 28549731#6 28549731#7 28549731#8 28549731#9 345230672#0 345230672#1" />
	</vehicle>
	<vehicle id="73" depart="11578.17" type="Car">
		 <route edges="-58207369#2 -58207369#1 28549731#3 28549731#4 28549731#6 28549731#7 28549731#8 28549731#9 345230672#0 345230672#1" />
	</vehicle>
	<vehicle id="74" depart="11623.67" type="Truck">
		 <route edges="28549731#0 28549731#1 28549731#2 28549731#3 28549731#4 28549731#6 28549731#7 28549731#8 28549731#9 345230672#0 345230672#1" />
	</vehicle>
	<vehicle id="75" depart="11658.9" type="Bus">
		 <route edges="28549731#0 28549731#1 28549731#2 28549731#3 28549731#4 28549731#6 28549731#7 28549731#8 28549731#9 345230672#0 345230672#1" />
	</vehicle>
	<vehicle id="76" depart="11684.96" type="Truck">
		 <route edges="28549731#0 28549731#1 28549731#2 28549731#3 28549731#4 28549731#6 28549731#7 28549731#8 28549731#9 345230672#0 345230672#1" />
	</vehicle>
	<vehicle id="77" depart="11707.28" type="Car">
		 <route edges="-58207369#2 -58207369#1 28549731#3 28549731#4 28549731#6 28549731#7 28549731#8 28549731#9 28549731#10 28549731#11 28549731#12" />
	</vehicle>
	<vehicle id="78" depart="11895.41" type="Car">
		 <route edges="-345230672#1 -345230672#0 -28549731#9 -28549731#8 -28549731#7 -28549731#6 -28549731#4 -28549731#3 58207369#1 58207369#2" />
	</vehicle>
	<vehicle id="79" depart="12033.96" type="Truck">
		 <route edges="-58207369#2 -58207369#1 28549731#3 28549731#4 28549731#6 28549731#7 28549731#8 28549731#9 28549731#10 28549731#11 28549731#12" />
	</vehicle>
	<vehicle id="80" depart="12035.28" type="Car">
		 <route edges="-28549731#12 -28549731#11 -28549731#10 -28549731#9 -28549731#8 -28549731#7 -28549731#6 -28549731#4 -28549731#3 58207369#1 58207369#2" />
	</vehicle>
	<vehicle id="81" depart="12055.91" type="Truck">
		 <route edges="28549731#0 28549731#1 28549731#2 28549731#3 28549731#4 28549731#6 28549731#7 28549731#8 28549731#9 28549731#10 28549731#11 28549731#12" />
	</vehicle>
	<vehicle id="82" depart="12116.41" type="Car">
		 <route edges="-345230672#1 -345230672#0 -28549731#9 -28549731#8 -28549731#7 -28549731#6 -28549731#4 -28549731#3 -28549731#2 -28549731#1 -28549731#0" />
	</vehicle>
	<vehicle id="83" depart="12154.02" type="Car">
		 <route edges="28549731#0 28549731#1 28549731#2 28549731#3 28549731#4 28549731#6 28549731#7 28549731#8 28549731#9 28549731#10 28549731#11 28549731#12" />
	</vehicle>
	<vehicle id="84" depart="12226.69" type="Truck">
		 <route edges="-345230672#1 -345230672#0 -28549731#9 -28549731#8 -28549731#7 -28549731#6 -28549731#4 -28549731#3 -28549731#2 -28549731#1 -28549731#0" />
	</vehicle>
	<vehicle id="85" depart="12229.44" type="Truck">
		 <route edges="28549731#0 28549731#1 28549731#2 28549731#3 28549731#4 28549731#6 28549731#7 28549731#8 28549731#9 28549731#10 28549731#11 28549731#12" />
	</vehicle>
	<vehicle id="86" depart="12235.52" type="Car">
		 <route edges="-345230672#1 -345230672#0 -28549731#9 -28549731#8 -28549731#7 -28549731#6 -28549731#4 -28549731#3 -28549731#2 -28549731#1 -28549731#0" />
	</vehicle>
	<vehicle id="87" depart="12302.34" type="Car">
		 <route edges="28549731#0 28549731#1 28549731#2 28549731#3 28549731#4 28549731#6 28549731#7 28549731#8 28549731#9 28549731#10 28549731#11 28549731#12" />
	</vehicle>
	<vehicle id="88" depart="12341.25" type="Truck">
		 <route edges="-345230672#1 -345230672#0 -28549731#9 -28549731#8 -28549731#7 -28549731#6 -28549731#4 -28549731#3 -28549731#2 -28549731#1 -28549731#0" />
	</vehicle>
	<vehicle id="89" depart="12374.77" type="Car">
		 <route edges="-58207369#2 -58207369#1 28549731#3 28549731#4 28549731#6 28549731#7 28549731#8 28549731#9 345230672#0 345230672#1" />
	</vehicle>
	<vehicle id="90" depart="12409.47" type="Car">
		 <route edges="-28549731#12 -28549731#11 -28549731#10 -28549731#9 -28549731#8 -28549731#7 -28549731#6 -28549731#4 -28549731#3 -28549731#2 -28549731#1 -28549731#0" />
	</vehicle>
	<vehicle id="91" depart="12410.86" type="Truck">
		 <route edges="28549731#0 28549731#1 28549731#2 28549731#3 28549731#4 28549731#6 28549731#7 28549731#8 28549731#9 345230672#0 345230672#1" />
	</vehicle>
	<vehicle id="92" depart="12533.64" type="Bus">
		 <route edges="-28549731#12 -28549731#11 -28549731#10 -28549731#9 -28549731#8 -28549731#7 -28549731#6 -28549731#4 -28549731#3 -28549731#2 -28549731#1 -28549731#0" />
	</vehicle>
	<vehicle id="93" depart="12540.83" type="Car">
		 <route edges="28549731#0 28549731#1 28549731#2 28549731#3 28549731#4 28549731#6 28549731#7 28549731#8 28549731#9 28549731#10 28549731#11 28549731#12" />
	</vehicle>
	<vehicle id="94" depart="12557.95" type="Truck">
		 <route edges="-28549731#12 -28549731#11 -28549731#10 -28549731#9 -28549731#8 -28549731#7 -28549731#6 -28549731#4 -28549731#3 -28549731#2 -28549731#1 -28549731#0" />
	</vehicle>
	<vehicle id="95" depart="12566.19" type="Car">
		 <route edges="-58207369#2 -58207369#1 28549731#3 28549731#4 28549731#6 28549731#7 28549731#8 28549731#9 28549731#10 28549731#11 28549731#12" />
	</vehicle>
	<vehicle id="96" depart="12620.2" type="Car">
		 <route edges="-58207369#2 -58207369#1 28549731#3 28549731#4 28549731#6 28549731#7 28549731#8 28549731#9 345230672#0 345230672#1" />
	</vehicle>
	<vehicle id="97" depart="12677.94" type="Bus">
		 <route edges="-28549731#12 -28549731#11 -28549731#10 -28549731#9 -28549731#8 -28549731#7 -28549731#6 -28549731#4 -28549731#3 58207369#1 58207369#2" />
	</vehicle>
	<vehicle id="98" depart="12699.96" type="Car">
		 <route edges="28549731#0 28549731#1 28549731#2 28549731#3 28549731#4 28549731#6 28549731#7 28549731#8 28549731#9 345230672#0 345230672#1" />
	</vehicle>
	<vehicle id="99" depart="12748.25" type="Bus">
		 <route edges="-28549731#12 -28549731#11 -28549731#10 -28549731#9 -28549731#8 -28549731#7 -28549731#6 -28549731#4 -28549731#3 -28549731#2 -28549731#1 -28549731#0" />
	</vehicle>
	<vehicle id="100" depart="12776.53" type="Car">
		 <route edges="-58207369#2 -58207369#1 28549731#3 28549731#4 28549731#6 28549731#7 28549731#8 28549731#9 345230672#0 345230672#1" />
	</vehicle>
	<vehicle id="101" depart="12865.99" type="Truck">
		 <route edges="-28549731#12 -28549731#11 -28549731#10 -28549731#9 -28549731#8 -28549731#7 -28549731#6 -28549731#4 -28549731#3 -28549731#2 -28549731#1 -28549731#0" />
	</vehicle>
	<vehicle id="102" depart="12877.19" type="Car">
		 <route edges="28549731#0 28549731#1 28549731#2 28549731#3 28549731#4 28549731#6 28549731#7 28549731#8 28549731#9 28549731#10 28549731#11 28549731#12" />
	</vehicle>
	<vehicle id="103" depart="12975.25" type="Bus">
		 <route edges="-345230672#1 -345230672#0 -28549731#9 -28549731#8 -28549731#7 -28549731#6 -28549731#4 -28549731#3 -28549731#2 -28549731#1 -28549731#0" />
	</vehicle>
	<vehicle id="104" depart="12977.68" type="Car">
		 <route edges="28549731#0 28549731#1 28549731#2 28549731#3 28549731#4 28549731#6 28549731#7 28549731#8 28549731#9 28549731#10 28549731#11 28549731#12" />
	</vehicle>
	<vehicle id="105" depart="13159.24" type="Bus">
		 <route edges="28549731#0 28549731#1 28549731#2 28549731#3 28549731#4 28549731#6 28549731#7 28549731#8 28549731#9 345230672#0 345230672#1" />
	</vehicle>
	<vehicle id="106" depart="13175.76" type="Bus">
		 <route edges="-58207369#2 -58207369#1 28549731#3 28549731#4 28549731#6 28549731#7 28549731#8 28549731#9 28549731#10 28549731#11 28549731#12" />
	</vehicle>
	<vehicle id="107" depart="13545.74" type="Car">
		 <route edges="-58207369#2 -58207369#1 28549731#3 28549731#4 28549731#6 28549731#7 28549731#8 28549731#9 28549731#10 28549731#11 28549731#12" />
	</vehicle>
	<vehicle id="108" depart="13599.88" type="Car">
		 <route edges="-28549731#12 -28549731#11 -28549731#10 -28549731#9 -28549731#8 -28549731#7 -28549731#6 -28549731#4 -28549731#3 -28549731#2 -28549731#1 -28549731#0" />
	</vehicle>
	<vehicle id="109" depart="13661.94" type="Truck">
		 <route edges="-58207369#2 -58207369#1 28549731#3 28549731#4 28549731#6 28549731#7 28549731#8 28549731#9 345230672#0 345230672#1" />
	</vehicle>
	<vehicle id="110" depart="13686.35" type="Car">
		 <route edges="-345230672#1 -345230672#0 -28549731#9 -28549731#8 -28549731#7 -28549731#6 -28549731#4 -28549731#3 -28549731#2 -28549731#1 -28549731#0" />
	</vehicle>
	<vehicle id="111" depart="13823.72" type="Truck">
		 <route edges="28549731#0 28549731#1 28549731#2 28549731#3 28549731#4 28549731#6 28549731#7 28549731#8 28549731#9 345230672#0 345230672#1" />
	</vehicle>
	<vehicle id="112" depart="13823.91" type="Car">
		 <route edges="-28549731#12 -28549731#11 -28549731#10 -28549731#9 -28549731#8 -28549731#7 -28549731#6 -28549731#4 -28549731#3 58207369#1 58207369#2" />
	</vehicle>
	<vehicle id="113" depart="13875.85" type="Car">
		 <route edges="-58207369#2 -58207369#1 28549731#3 28549731#4 28549731#6 28549731#7 28549731#8 28549731#9 28549731#10 28549731#11 28549731#12" />
	</vehicle>
	<vehicle id="114" depart="13916.61" type="Bus">
		 <route edges="-28549731#12 -28549731#11 -28549731#10 -28549731#9 -28549731#8 -28549731#7 -28549731#6 -28549731#4 -28549731#3 -28549731#2 -28549731#1 -28549731#0" />
	</vehicle>
	<vehicle id="115" depart="14111.11" type="Bus">
		 <route edges="28549731#0 28549731#1 28549731#2 28549731#3 28549731#4 28549731#6 28549731#7 28549731#8 28549731#9 345230672#0 345230672#1" />
	</vehicle>
	<vehicle id="116" depart="14117.38" type="Bus">
		 <route edges="28549731#0 28549731#1 28549731#2 28549731#3 28549731#4 28549731#6 28549731#7 28549731#8 28549731#9 28549731#10 28549731#11 28549731#12" />
	</vehicle>
	<vehicle id="117" depart="14182.94" type="Truck">
		 <route edges="28549731#0 28549731#1 28549731#2 28549731#3 28549731#4 28549731#6 28549731#7 28549731#8 28549731#9 345230672#0 345230672#1" />
	</vehicle>
	<vehicle id="118" depart="14362.55" type="Car">
		 <route edges="28549731#0 28549731#1 28549731#2 28549731#3 28549731#4 28549731#6 28549731#7 28549731#8 28549731#9 28549731#10 28549731#11 28549731#12" />
	</vehicle>
	<vehicle id="119" depart="14464.43" type="Truck">
		 <route edges="-58207369#2 -58207369#1 28549731#3 28549731#4 28549731#6 28549731#7 28549731#8 28549731#9 345230672#0 345230672#1" />
	</vehicle>
	<vehicle id="120" depart="14574.02" type="Car">
		 <route edges="-345230672#1 -345230672#0 -28549731#9 -28549731#8 -28549731#7 -28549731#6 -28549731#4 -28549731#3 58207369#1 58207369#2" />
	</vehicle>
	<vehicle id="121" depart="14590.19" type="Car">
		 <route edges="28549731#0 28549731#1 28549731#2 28549731#3 28549731#4 28549731#6 28549731#7 28549731#8 28549731#9 345230672#0 345230672#1" />
	</vehicle>
	<vehicle id="122" depart="14637.22" type="Car">
		 <route edges="-345230672#1 -345230672#0 -28549731#9 -28549731#8 -28549731#7 -28549731#6 -28549731#4 -28549731#3 58207369#1 58207369#2" />
	</vehicle>
	<vehicle id="123" depart="14640.57" type="Car">
		 <route edges="28549731#0 28549731#1 28549731#2 28549731#3 28549731#4 28549731#6 28549731#7 28549731#8 28549731#9 345230672#0 345230672#1" />
	</vehicle>
	<vehicle id="124" depart="14775.8" type="Bus">
		 <route edges="-345230672#1 -345230672#0 -28549731#9 -28549731#8 -28549731#7 -28549731#6 -28549731#4 -28549731#3 58207369#1 58207369#2" />
	</vehicle>
	<vehicle id="125" depart="14806.68" type="electricCar">
		 <route edges="28549731#0 28549731#1 28549731#2 28549731#3 28549731#4 28549731#6 28549731#7 28549731#8 28549731#9 28549731#10 28549731#11 28549731#12" />
	</vehicle>
	<vehicle id="126" depart="14824.11" type="Bus">
		 <route edges="-345230672#1 -345230672#0 -28549731#9 -28549731#8 -28549731#7 -28549731#6 -28549731#4 -28549731#3 -28549731#2 -28549731#1 -28549731#0" />
	</vehicle>
	<vehicle id="127" depart="14890.31" type="Car">
		 <route edges="-58207369#2 -58207369#1 28549731#3 28549731#4 28549731#6 28549731#7 28549731#8 28549731#9 345230672#0 345230672#1" />
	</vehicle>
	<vehicle id="128" depart="15020.05" type="Truck">
		 <route edges="-345230672#1 -345230672#0 -28549731#9 -28549731#8 -28549731#7 -28549731#6 -28549731#4 -28549731#3 -28549731#2 -28549731#1 -28549731#0" />
	</vehicle>
	<vehicle id="129" depart="15048.02" type="Car">
		 <route edges="-58207369#2 -58207369#1 28549731#3 28549731#4 28549731#6 28549731#7 28549731#8 28549731#9 28549731#10 28549731#11 28549731#12" />
	</vehicle>
	<vehicle id="130" depart="15066.04" type="Car">
		 <route edges="-345230672#1 -345230672#0 -28549731#9 -28549731#8 -28549731#7 -28549731#6 -28549731#4 -28549731#3 58207369#1 58207369#2" />
	</vehicle>
	<vehicle id="131" depart="15099.94" type="Car">
		 <route edges="28549731#0 28549731#1 28549731#2 28549731#3 28549731#4 28549731#6 28549731#7 28549731#8 28549731#9 28549731#10 28549731#11 28549731#12" />
	</vehicle>
	<vehicle id="132" depart="15170.65" type="Bus">
		 <route edges="-28549731#12 -28549731#11 -28549731#10 -28549731#9 -28549731#8 -28549731#7 -28549731#6 -28549731#4 -28549731#3 -28549731#2 -28549731#1 -28549731#0" />
	</vehicle>
	<vehicle id="133" depart="15178.69" type="Bus">
		 <route edges="-58207369#2 -58207369#1 28549731#3 28549731#4 28549731#6 28549731#7 28549731#8 28549731#9 28549731#10 28549731#11 28549731#12" />
	</vehicle>
	<vehicle id="134" depart="15208.44" type="Truck">