<routes xmlns:xsi="http://www.w3.org/2001/XMLSchema-instance" xsi:noNamespaceSchemaLocation="http://sumo.dlr.de/xsd/routes_file.xsd">
	<vType id="Car" emissionClass="HBEFA3/PC_G_EU4" accel="3.0" decel="6.0" length="5.0" minGap="2.5" maxSpeed="50.0" />
	<vType id="Bus" emissionClass="HBEFA3/LDV_D_EU4" accel="2.0" decel="5.0" length="7.0" minGap="3.5" maxSpeed="40.0" color="red" guiShape="bus" />
	<vType id="Truck" emissionClass="HBEFA3/HDV_D_EU4" accel="1.0" decel="5.0" length="7.0" minGap="3.5" maxSpeed="40.0" color="blue" guiShape="truck" />
	<vType id="Motor_Bike" emissionClass="HBEFA3/PC_G_EU4" accel="2.0" decel="4.0" length="3.0" minGap="2.5" maxSpeed="50.0" color="165,105,189" guiShape="motorcycle" />
	<vType id="electricCar" emissionClass="Zero" accel="3.0" decel="6.0" length="5.0" minGap="2.5" maxSpeed="50.0" color="green">
		 <param key="has.battery.device" value="true" /> 
		 <param key="device.battery.capacity" value="2000" /> 
		 <param key="maximumPower" value="1000" /> 
		 <param key="frontSurfaceArea" value="5" /> 
		 <param key="airDragCoefficient" value="0.6" /> 
		 <param key="rotatingMass" value="100" /> 
		 <param key="radialDragCoefficient" value="0.5" /> 
		 <param key="rollDragCoefficient" value="0.01" /> 
		 <param key="constantPowerIntake" value="100" /> 
		 <param key="propulsionEfficiency" value="0.9" /> 
		 <param key="recuperationEfficiency" value="0.9" /> 
		 <param key="stoppingThreshold" value="0.1" /> 
		 <param key="device.battery.maximumChargeRate" value="150000" /> 
	</vType>
	<vehicle id="1" depart="240.33" type="Bus">
		 <route edges="28549731#0 28549731#1 28549731#2 28549731#3 28549731#4 28549731#6 28549731#7 28549731#8 28549731#9 345230672#0 345230672#1" />
	</vehicle>
	<vehicle id="2" depart="299.74" type="Car">
		 <route edges="-345230672#1 -345230672#0 -28549731#9 -28549731#8 -28549731#7 -28549731#6 -28549731#4 -28549731#3 58207369#1 58207369#2" />
	</vehicle>
	<vehicle id="3" depart="728.04" type="Car">
		 <route edges="28549731#0 28549731#1 28549731#2 28549731#3 28549731#4 28549731#6 28549731#7 28549731#8 28549731#9 28549731#10 28549731#11 28549731#12" />
	</vehicle>
	<vehicle id="4" depart="1443.85" type="Car">
		 <route edges="28549731#0 28549731#1 28549731#2 28549731#3 28549731#4 28549731#6 28549731#7 28549731#8 28549731#9 28549731#10 28549731#11 28549731#12" />
	</vehicle>
	<vehicle id="5" depart="1540.66" type="Truck">
		 <route edges="-28549731#12 -28549731#11 -28549731#10 -28549731#9 -28549731#8 -28549731#7 -28549731#6 -28549731#4 -28549731#3 -28549731#2 -28549731#1 -28549731#0" />
	</vehicle>
	<vehicle id="6" depart="1875.71" type="Truck">
		 <route edges="28549731#0 28549731#1 28549731#2 28549731#3 28549731#4 28549731#6 28549731#7 28549731#8 28549731#9 345230672#0 345230672#1" />
	</vehicle>
	<vehicle id="7" depart="1968.62" type="Car">
		 <route edges="-28549731#12 -28549731#11 -28549731#10 -28549731#9 -28549731#8 -28549731#7 -28549731#6 -28549731#4 -28549731#3 -28549731#2 -28549731#1 -28549731#0" />
	</vehicle>
	<vehicle id="8" depart="1986.4" type="Truck">
		 <route edges="-58207369#2 -58207369#1 28549731#3 28549731#4 28549731#6 28549731#7 28549731#8 28549731#9 28549731#10 28549731#11 28549731#12" />
	</vehicle>
	<vehicle id="9" depart="2088.32" type="Car">
		 <route edges="-345230672#1 -345230672#0 -28549731#9 -28549731#8 -28549731#7 -28549731#6 -28549731#4 -28549731#3 -28549731#2 -28549731#1 -28549731#0" />
	</vehicle>
	<vehicle id="10" depart="2812.14" type="Bus">
		 <route edges="-28549731#12 -28549731#11 -28549731#10 -28549731#9 -28549731#8 -28549731#7 -28549731#6 -28549731#4 -28549731#3 -28549731#2 -28549731#1 -28549731#0" />
	</vehicle>
	<vehicle id="11" depart="2971.13" type="Car">
		 <route edges="-28549731#12 -28549731#11 -28549731#10 -28549731#9 -28549731#8 -28549731#7 -28549731#6 -28549731#4 -28549731#3 58207369#1 58207369#2" />
	</vehicle>
	<vehicle id="12" depart="3195.68" type="Car">
		 <route edges="-345230672#1 -345230672#0 -28549731#9 -28549731#8 -28549731#7 -28549731#6 -28549731#4 -28549731#3 58207369#1 58207369#2" />
	</vehicle>
	<vehicle id="13" depart="3688.93" type="Bus">
		 <route edges="28549731#0 28549731#1 28549731#2 28549731#3 28549731#4 28549731#6 28549731#7 28549731#8 28549731#9 28549731#10 28549731#11 28549731#12" />
	</vehicle>
	<vehicle id="14" depart="4118.62" type="Bus">
		 <route edges="-28549731#12 -28549731#11 -28549731#10 -28549731#9 -28549731#8 -28549731#7 -28549731#6 -28549731#4 -28549731#3 -28549731#2 -28549731#1 -28549731#0" />
	</vehicle>
	<vehicle id="15" depart="4398.72" type="Bus">
		 <route edges="28549731#0 28549731#1 28549731#2 28549731#3 28549731#4 28549731#6 28549731#7 28549731#8 28549731#9 28549731#10 28549731#11 28549731#12" />
	</vehicle>
	<vehicle id="16" depart="4628.05" type="Car">
		 <route edges="-58207369#2 -58207369#1 28549731#3 28549731#4 28549731#6 28549731#7 28549731#8 28549731#9 28549731#10 28549731#11 28549731#12" />
	</vehicle>
	<vehicle id="17" depart="4639.18" type="Car">
		 <route edges="-28549731#12 -28549731#11 -28549731#10 -28549731#9 -28549731#8 -28549731#7 -28549731#6 -28549731#4 -28549731#3 58207369#1 58207369#2" />
	</vehicle>
	<vehicle id="18" depart="4720.46" type="Car">
		 <route edges="28549731#0 28549731#1 28549731#2 28549731#3 28549731#4 28549731#6 28549731#7 28549731#8 28549731#9 345230672#0 345230672#1" />
	</vehicle>
	<vehicle id="19" depart="5024.55" type="Truck">
		 <route edges="-28549731#12 -28549731#11 -28549731#10 -28549731#9 -28549731#8 -28549731#7 -28549731#6 -28549731#4 -28549731#3 -28549731#2 -28549731#1 -28549731#0" />
	</vehicle>
	<vehicle id="20" depart="5220.66" type="electricCar">
		 <route edges="-58207369#2 -58207369#1 28549731#3 28549731#4 28549731#6 28549731#7 28549731#8 28549731#9 345230672#0 345230672#1" />
	</vehicle>
	<vehicle id="21" depart="5272.29" type="Bus">
		 <route edges="-58207369#2 -58207369#1 28549731#3 28549731#4 28549731#6 28549731#7 28549731#8 28549731#9 345230672#0 345230672#1" />
	</vehicle>
	<vehicle id="22" depart="5446.87" type="Truck">
		 <route edges="-58207369#2 -58207369#1 28549731#3 28549731#4 28549731#6 28549731#7 28549731#8 28549731#9 345230672#0 345230672#1" />
	</vehicle>
	<vehicle id="23" depart="5530.64" type="Car">
		 <route edges="-345230672#1 -345230672#0 -28549731#9 -28549731#8 -28549731#7 -28549731#6 -28549731#4 -28549731#3 58207369#1 58207369#2" />
	</vehicle>
	<vehicle id="24" depart="5715.06" type="Truck">
		 <route edges="28549731#0 28549731#1 28549731#2 28549731#3 28549731#4 28549731#6 28549731#7 28549731#8 28549731#9 28549731#10 28549731#11 28549731#12" />
	</vehicle>
	<vehicle id="25" depart="5983.41" type="Car">
		 <route edges="-345230672#1 -345230672#0 -28549731#9 -28549731#8 -28549731#7 -28549731#6 -28549731#4 -28549731#3 -28549731#2 -28549731#1 -28549731#0" />
	</vehicle>
	<vehicle id="26" depart="6055.05" type="Car">
		 <route edges="28549731#0 28549731#1 28549731#2 28549731#3 28549731#4 28549731#6 28549731#7 28549731#8 28549731#9 28549731#10 28549731#11 28549731#12" />
	</vehicle>
	<vehicle id="27" depart="6180.34" type="Truck">
		 <route edges="-28549731#12 -28549731#11 -28549731#10 -28549731#9 -28549731#8 -28549731#7 -28549731#6 -28549731#4 -28549731#3 -28549731#2 -28549731#1 -28549731#0" />
	</vehicle>
	<vehicle id="28" depart="6198.57" type="Car">
		 <route edges="28549731#0 28549731#1 28549731#2 28549731#3 28549731#4 28549731#6 28549731#7 28549731#8 28549731#9 345230672#0 345230672#1" />
	</vehicle>
	<vehicle id="29" depart="6468.42" type="Truck">
		 <route edges="-58207369#2 -58207369#1 28549731#3 28549731#4 28549731#6 28549731#7 28549731#8 28549731#9 345230672#0 345230672#1" />
	</vehicle>
	<vehicle id="30" depart="6526.51" type="Truck">
		 <route edges="-28549731#12 -28549731#11 -28549731#10 -28549731#9 -28549731#8 -28549731#7 -28549731#6 -28549731#4 -28549731#3 -28549731#2 -28549731#1 -28549731#0" />
	</vehicle>
	<vehicle id="31" depart="6614.57" type="Truck">
		 <route edges="28549731#0 28549731#1 28549731#2 28549731#3 28549731#4 28549731#6 28549731#7 28549731#8 28549731#9 345230672#0 345230672#1" />
	</vehicle>
	<vehicle id="32" depart="6858.16" type="Car">
		 <route edges="-345230672#1 -345230672#0 -28549731#9 -28549731#8 -28549731#7 -28549731#6 -28549731#4 -28549731#3 58207369#1 58207369#2" />
	</vehicle>
	<vehicle id="33" depart="6887.89" type="Truck">
		 <route edges="-58207369#2 -58207369#1 28549731#3 28549731#4 28549731#6 28549731#7 28549731#8 28549731#9 345230672#0 345230672#1" />
	</vehicle>
	<vehicle id="34" depart="7006.82" type="Bus">
		 <route edges="-28549731#12 -28549731#11 -28549731#10 -28549731#9 -28549731#8 -28549731#7 -28549731#6 -28549731#4 -28549731#3 -28549731#2 -28549731#1 -28549731#0" />
	</vehicle>
	<vehicle id="35" depart="7181.1" type="Car">
		 <route edges="28549731#0 28549731#1 28549731#2 28549731#3 28549731#4 28549731#6 28549731#7 28549731#8 28549731#9 28549731#10 28549731#11 28549731#12" />
	</vehicle>
	<vehicle id="36" depart="7345.3" type="Car">
		 <route edges="-58207369#2 -58207369#1 28549731#3 28549731#4 28549731#6 28549731#7 28549731#8 28549731#9 28549731#10 28549731#11 28549731#12" />
	</vehicle>
	<vehicle id="37" depart="7356.52" type="Car">
		 <route edges="-345230672#1 -345230672#0 -28549731#9 -28549731#8 -28549731#7 -28549731#6 -28549731#4 -28549731#3 -28549731#2 -28549731#1 -28549731#0" />
	</vehicle>
	<vehicle id="38" depart="7392.98" type="Car">
		 <route edges="-28549731#12 -28549731#11 -28549731#10 -28549731#9 -28549731#8 -28549731#7 -28549731#6 -28549731#4 -28549731#3 -28549731#2 -28549731#1 -28549731#0" />
	</vehicle>
	<vehicle id="39" depart="7597.55" type="Truck">
		 <route edges="-345230672#1 -345230672#0 -28549731#9 -28549731#8 -28549731#7 -28549731#6 -28549731#4 -28549731#3 -28549731#2 -28549731#1 -28549731#0" />
	</vehicle>
	<vehicle id="40" depart="7815.47" type="Car">
		 <route edges="-345230672#1 -345230672#0 -28549731#9 -28549731#8 -28549731#7 -28549731#6 -28549731#4 -28549731#3 -28549731#2 -28549731#1 -28549731#0" />
	</vehicle>
	<vehicle id="41" depart="7972.85" type="Car">
		 <route edges="-345230672#1 -345230672#0 -28549731#9 -28549731#8 -28549731#7 -28549731#6 -28549731#4 -28549731#3 58207369#1 58207369#2" />
	</vehicle>
	<vehicle id="42" depart="8007.3" type="Car">
		 <route edges="-28549731#12 -28549731#11 -28549731#10 -28549731#9 -28549731#8 -28549731#7 -28549731#6 -28549731#4 -28549731#3 58207369#1 58207369#2" />
	</vehicle>
	<vehicle id="43" depart="8165.66" type="Car">
		 <route edges="28549731#0 28549731#1 28549731#2 28549731#3 28549731#4 28549731#6 28549731#7 28549731#8 28549731#9 345230672#0 345230672#1" />
	</vehicle>
	<vehicle id="44" depart="8768.94" type="Car">
		 <route edges="-28549731#12 -28549731#11 -28549731#10 -28549731#9 -28549731#8 -28549731#7 -28549731#6 -28549731#4 -28549731#3 -28549731#2 -28549731#1 -28549731#0" />
	</vehicle>
	<vehicle id="45" depart="8870.25" type="Truck">
		 <route edges="-58207369#2 -58207369#1 28549731#3 28549731#4 28549731#6 28549731#7 28549731#8 28549731#9 28549731#10 28549731#11 28549731#12" />
	</vehicle>
	<vehicle id="46" depart="8977.47" type="Car">
		 <route edges="-345230672#1 -345230672#0 -28549731#9 -28549731#8 -28549731#7 -28549731#6 -28549731#4 -28549731#3 58207369#1 58207369#2" />
	</vehicle>
	<vehicle id="47" depart="8992.35" type="Truck">
		 <route edges="-58207369#2 -58207369#1 28549731#3 28549731#4 28549731#6 28549731#7 28549731#8 28549731#9 345230672#0 345230672#1" />
	</vehicle>
	<vehicle id="48" depart="9040.98" type="Truck">
		 <route edges="-58207369#2 -58207369#1 28549731#3 28549731#4 28549731#6 28549731#7 28549731#8 28549731#9 345230672#0 345230672#1" />
	</vehicle>
	<vehicle id="49" depart="9087.62" type="Car">
		 <route edges="-345230672#1 -345230672#0 -28549731#9 -28549731#8 -28549731#7 -28549731#6 -28549731#4 -28549731#3 58207369#1 58207369#2" />
	</vehicle>
	<vehicle id="50" depart="9154.93" type="Bus">
		 <route edges="28549731#0 28549731#1 28549731#2 28549731#3 28549731#4 28549731#6 28549731#7 28549731#8 28549731#9 345230672#0 345230672#1" />
	</vehicle>
	<vehicle id="51" depart="9302.81" type="Car">
		 <route edges="-345230672#1 -345230672#0 -28549731#9 -28549731#8 -28549731#7 -28549731#6 -28549731#4 -28549731#3 58207369#1 58207369#2" />
	</vehicle>
	<vehicle id="52" depart="9464.43" type="Car">
		 <route edges="-58207369#2 -58207369#1 28549731#3 28549731#4 28549731#6 28549731#7 28549731#8 28549731#9 345230672#0 345230672#1" />
	</vehicle>
	<vehicle id="53" depart="9467.42" type="Car">
		 <route edges="-28549731#12 -28549731#11 -28549731#10 -28549731#9 -28549731#8 -28549731#7 -28549731#6 -28549731#4 -28549731#3 -28549731#2 -28549731#1 -28549731#0" />
	</vehicle>
	<vehicle id="54" depart="9479.93" type="Car">
		 <route edges="28549731#0 28549731#1 28549731#2 28549731#3 28549731#4 28549731#6 28549731#7 28549731#8 28549731#9 345230672#0 345230672#1" />
	</vehicle>
	<vehicle id="55" depart="9586.01" type="Car">
		 <route edges="28549731#0 28549731#1 28549731#2 28549731#3 28549731#4 28549731#6 28549731#7 28549731#8 28549731#9 345230672#0 345230672#1" />
	</vehicle>
	<vehicle id="56" depart="9660.36" type="Car">
		 <route edges="28549731#0 28549731#1 28549731#2 28549731#3 28549731#4 28549731#6 28549731#7 28549731#8 28549731#9 28549731#10 28549731#11 28549731#12" />
	</vehicle>
	<vehicle id="57" depart="9709.68" type="Bus">
		 <route edges="28549731#0 28549731#1 28549731#2 28549731#3 28549731#4 28549731#6 28549731#7 28549731#8 28549731#9 345230672#0 345230672#1" />
	</vehicle>
	<vehicle id="58" depart="9873.68" type="Car">
		 <route edges="-58207369#2 -58207369#1 28549731#3 28549731#4 28549731#6 28549731#7 28549731#8 28549731#9 345230672#0 345230672#1" />
	</vehicle>
	<vehicle id="59" depart="10052.97" type="Truck">
		 <route edges="-58207369#2 -58207369#1 28549731#3 28549731#4 28549731#6 28549731#7 28549731#8 28549731#9 345230672#0 345230672#1" />
	</vehicle>
	<vehicle id="60" depart="10080.52" type="Bus">
		 <route edges="-28549731#12 -28549731#11 -28549731#10 -28549731#9 -28549731#8 -28549731#7 -28549731#6 -28549731#4 -28549731#3 58207369#1 58207369#2" />
	</vehicle>
	<vehicle id="61" depart="10138.59" type="Car">
		 <route edges="28549731#0 28549731#1 28549731#2 28549731#3 28549731#4 28549731#6 28549731#7 28549731#8 28549731#9 345230672#0 345230672#1" />
	</vehicle>
	<vehicle id="62" depart="10170.86" type="Bus">
		 <route edges="-345230672#1 -345230672#0 -28549731#9 -28549731#8 -28549731#7 -28549731#6 -28549731#4 -28549731#3 58207369#1 58207369#2" />
	</vehicle>
	<vehicle id="63" depart="10191.89" type="Car">
		 <route edges="28549731#0 28549731#1 28549731#2 28549731#3 28549731#4 28549731#6 28549731#7 28549731#8 28549731#9 28549731#10 28549731#11 28549731#12" />
	</vehicle>
	<vehicle id="64" depart="10216.15" type="Car">
		 <route edges="-345230672#1 -345230672#0 -28549731#9 -28549731#8 -28549731#7 -28549731#6 -28549731#4 -28549731#3 -28549731#2 -28549731#1 -28549731#0" />
	</vehicle>
	<vehicle id="65" depart="10217.97" type="Truck">
		 <route edges="-58207369#2 -58207369#1 28549731#3 28549731#4 28549731#6 28549731#7 28549731#8 28549731#9 345230672#0 345230672#1" />
	</vehicle>
	<vehicle id="66" depart="10223.93" type="Truck">
		 <route edges="-28549731#12 -28549731#11 -28549731#10 -28549731#9 -28549731#8 -28549731#7 -28549731#6 -28549731#4 -28549731#3 58207369#1 58207369#2" />
	</vehicle>
	<vehicle id="67" depart="10269.96" type="Bus">
		 <route edges="-58207369#2 -58207369#1 28549731#3 28549731#4 28549731#6 28549731#7 28549731#8 28549731#9 28549731#10 28549731#11 28549731#12" />
	</vehicle>
	<vehicle id="68" depart="10404.54" type="Truck">
		 <route edges="-345230672#1 -345230672#0 -28549731#9 -28549731#8 -28549731#7 -28549731#6 -28549731#4 -28549731#3 -28549731#2 -28549731#1 -28549731#0" />
	</vehicle>
	<vehicle id="69" depart="10416.68" type="Bus">
		 <route edges="28549731#0 28549731#1 28549731#2 28549731#3 28549731#4 28549731#6 28549731#7 28549731#8 28549731#9 345230672#0 345230672#1" />
	</vehicle>
	<vehicle id="70" depart="10429.7" type="Car">
		 <route edges="-28549731#12 -28549731#11 -28549731#10 -28549731#9 -28549731#8 -28549731#7 -28549731#6 -28549731#4 -28549731#3 -28549731#2 -28549731#1 -28549731#0" />
	</vehicle>
	<vehicle id="71" depart="10469.68" type="Car">
		 <route edges="-58207369#2 -58207369#1 28549731#3 28549731#4 28549731#6 28549731#7 28549731#8 28549731#9 345230672#0 345230672#1" />
	</vehicle>
	<vehicle id="72" depart="10537.1" type="Car">
		 <route edges="-28549731#12 -28549731#11 -28549731#10 -28549731#9 -28549731#8 -28549731#7 -28549731#6 -28549731#4 -28549731#3 58207369#1 58207369#2" />
	</vehicle>
	<vehicle id="73" depart="10572.12" type="Bus">
		 <route edges="-345230672#1 -345230672#0 -28549731#9 -28549731#8 -28549731#7 -28549731#6 -28549731#4 -28549731#3 58207369#1 58207369#2" />
	</vehicle>
	<vehicle id="74" depart="10655.12" type="Car">
		 <route edges="-345230672#1 -345230672#0 -28549731#9 -28549731#8 -28549731#7 -28549731#6 -28549731#4 -28549731#3 -28549731#2 -28549731#1 -28549731#0" />
	</vehicle>
	<vehicle id="75" depart="10851.25" type="Car">
		 <route edges="-58207369#2 -58207369#1 28549731#3 28549731#4 28549731#6 28549731#7 28549731#8 28549731#9 345230672#0 345230672#1" />
	</vehicle>
	<vehicle id="76" depart="10851.6" type="Bus">
		 <route edges="-345230672#1 -345230672#0 -28549731#9 -28549731#8 -28549731#7 -28549731#6 -28549731#4 -28549731#3 -28549731#2 -28549731#1 -28549731#0" />
	</vehicle>
	<vehicle id="77" depart="11399.24" type="Truck">
		 <route edges="28549731#0 28549731#1 28549731#2 28549731#3 28549731#4 28549731#6 28549731#7 28549731#8 28549731#9 28549731#10 28549731#11 28549731#12" />
	</vehicle>
	<vehicle id="78" depart="11462.56" type="electricCar">
		 <route edges="-345230672#1 -345230672#0 -28549731#9 -28549731#8 -28549731#7 -28549731#6 -28549731#4 -28549731#3 58207369#1 58207369#2" />
	</vehicle>
	<vehicle id="79" depart="11582.53" type="Truck">
		 <route edges="-58207369#2 -58207369#1 28549731#3 28549731#4 28549731#6 28549731#7 28549731#8 28549731#9 345230672#0 345230672#1" />
	</vehicle>
	<vehicle id="80" depart="11735.12" type="Truck">
		 <route edges="-58207369#2 -58207369#1 28549731#3 28549731#4 28549731#6 28549731#7 28549731#8 28549731#9 345230672#0 345230672#1" />
	</vehicle>
	<vehicle id="81" depart="11751.1" type="Bus">
		 <route edges="-28549731#12 -28549731#11 -28549731#10 -28549731#9 -28549731#8 -28549731#7 -28549731#6 -28549731#4 -28549731#3 -28549731#2 -28549731#1 -28549731#0" />
	</vehicle>
	<vehicle id="82" depart="11804.3" type="Car">
		 <route edges="-58207369#2 -58207369#1 28549731#3 28549731#4 28549731#6 28549731#7 28549731#8 28549731#9 345230672#0 345230672#1" />
	</vehicle>
	<vehicle id="83" depart="11869.61" type="Truck">
		 <route edges="-345230672#1 -345230672#0 -28549731#9 -28549731#8 -28549731#7 -28549731#6 -28549731#4 -28549731#3 58207369#1 58207369#2" />
	</vehicle>
	<vehicle id="84" depart="11981.84" type="Car">
		 <route edges="-58207369#2 -58207369#1 28549731#3 28549731#4 28549731#6 28549731#7 28549731#8 28549731#9 345230672#0 345230672#1" />
	</vehicle>
	<vehicle id="85" depart="12108.67" type="electricCar">
		 <route edges="28549731#0 28549731#1 28549731#2 28549731#3 28549731#4 28549731#6 28549731#7 28549731#8 28549731#9 345230672#0 345230672#1" />
	</vehicle>
	<vehicle id="86" depart="12231.78" type="Car">
		 <route edges="28549731#0 28549731#1 28549731#2 28549731#3 28549731#4 28549731#6 28549731#7 28549731#8 28549731#9 28549731#10 28549731#11 28549731#12" />
	</vehicle>
	<vehicle id="87" depart="12257.94" type="Truck">
		 <route edges="-58207369#2 -58207369#1 28549731#3 28549731#4 28549731#6 28549731#7 28549731#8 28549731#9 345230672#0 345230672#1" />
	</vehicle>
	<vehicle id="88" depart="12344.3" type="Truck">
		 <route edges="-58207369#2 -58207369#1 28549731#3 28549731#4 28549731#6 28549731#7 28549731#8 28549731#9 28549731#10 28549731#11 28549731#12" />
	</vehicle>
	<vehicle id="89" depart="12344.49" type="Car">
		 <route edges="28549731#0 28549731#1 28549731#2 28549731#3 28549731#4 28549731#6 28549731#7 28549731#8 28549731#9 28549731#10 28549731#11 28549731#12" />
	</vehicle>
	<vehicle id="90" depart="12380.12" type="Car">
		 <route edges="-58207369#2 -58207369#1 28549731#3 28549731#4 28549731#6 28549731#7 28549731#8 28549731#9 345230672#0 345230672#1" />
	</vehicle>
	<vehicle id="91" depart="12384.7" type="Truck">
		 <route edges="-58207369#2 -58207369#1 28549731#3 28549731#4 28549731#6 28549731#7 28549731#8 28549731#9 28549731#10 28549731#11 28549731#12" />
	</vehicle>
	<vehicle id="92" depart="12493.3" type="Truck">
		 <route edges="28549731#0 28549731#1 28549731#2 28549731#3 28549731#4 28549731#6 28549731#7 28549731#8 28549731#9 28549731#10 28549731#11 28549731#12" />
	</vehicle>
	<vehicle id="93" depart="12807.79" type="Truck">
		 <route edges="-58207369#2 -58207369#1 28549731#3 28549731#4 28549731#6 28549731#7 28549731#8 28549731#9 345230672#0 345230672#1" />
	</vehicle>
	<vehicle id="94" depart="12825.54" type="Truck">
		 <route edges="-28549731#12 -28549731#11 -28549731#10 -28549731#9 -28549731#8 -28549731#7 -28549731#6 -28549731#4 -28549731#3 -28549731#2 -28549731#1 -28549731#0" />
	</vehicle>
	<vehicle id="95" depart="12980.29" type="Bus">
		 <route edges="28549731#0 28549731#1 28549731#2 28549731#3 28549731#4 28549731#6 28549731#7 28549731#8 28549731#9 28549731#10 28549731#11 28549731#12" />
	</vehicle>
	<vehicle id="96" depart="12991.32" type="Car">
		 <route edges="-28549731#12 -28549731#11 -28549731#10 -28549731#9 -28549731#8 -28549731#7 -28549731#6 -28549731#4 -28549731#3 -28549731#2 -28549731#1 -28549731#0" />
	</vehicle>
	<vehicle id="97" depart="13016.27" type="Car">
		 <route edges="28549731#0 28549731#1 28549731#2 28549731#3 28549731#4 28549731#6 28549731#7 28549731#8 28549731#9 28549731#10 28549731#11 28549731#12" />
	</vehicle>
	<vehicle id="98" depart="13047.61" type="Car">
		 <route edges="-28549731#12 -28549731#11 -28549731#10 -28549731#9 -28549731#8 -28549731#7 -28549731#6 -28549731#4 -28549731#3 -28549731#2 -28549731#1 -28549731#0" />
	</vehicle>
	<vehicle id="99" depart="13103.91" type="Bus">
		 <route edges="-58207369#2 -58207369#1 28549731#3 28549731#4 28549731#6 28549731#7 28549731#8 28549731#9 345230672#0 345230672#1" />
	</vehicle>
	<vehicle id="100" depart="13218.99" type="Truck">
		 <route edges="-58207369#2 -58207369#1 28549731#3 28549731#4 28549731#6 28549731#7 28549731#8 28549731#9 345230672#0 345230672#1" />
	</vehicle>
	<vehicle id="101" depart="13496.6" type="Car">
		 <route edges="-58207369#2 -58207369#1 28549731#3 28549731#4 28549731#6 28549731#7 28549731#8 28549731#9 345230672#0 345230672#1" />
	</vehicle>
	<vehicle id="102" depart="13516.08" type="Car">
		 <route edges="28549731#0 28549731#1 28549731#2 28549731#3 28549731#4 28549731#6 28549731#7 28549731#8 28549731#9 28549731#10 28549731#11 28549731#12" />
	</vehicle>
	<vehicle id="103" depart="13544.76" type="Bus">
		 <route edges="-345230672#1 -345230672#0 -28549731#9 -28549731#8 -28549731#7 -28549731#6 -28549731#4 -28549731#3 58207369#1 58207369#2" />
	</vehicle>
	<vehicle id="104" depart="13613.33" type="Car">
		 <route edges="-58207369#2 -58207369#1 28549731#3 28549731#4 28549731#6 28549731#7 28549731#8 28549731#9 28549731#10 28549731#11 28549731#12" />
	</vehicle>
	<vehicle id="105" depart="13820.17" type="Car">
		 <route edges="-28549731#12 -28549731#11 -28549731#10 -28549731#9 -28549731#8 -28549731#7 -28549731#6 -28549731#4 -28549731#3 -28549731#2 -28549731#1 -28549731#0" />
	</vehicle>
	<vehicle id="106" depart="13902.29" type="Truck">
		 <route edges="-58207369#2 -58207369#1 28549731#3 28549731#4 28549731#6 28549731#7 28549731#8 28549731#9 28549731#10 28549731#11 28549731#12" />
	</vehicle>
	<vehicle id="107" depart="13923.36" type="Car">
		 <route edges="-28549731#12 -28549731#11 -28549731#10 -28549731#9 -28549731#8 -28549731#7 -28549731#6 -28549731#4 -28549731#3 58207369#1 58207369#2" />
	</vehicle>
	<vehicle id="108" depart="14070.99" type="Car">
		 <route edges="-58207369#2 -58207369#1 28549731#3 28549731#4 28549731#6 28549731#7 28549731#8 28549731#9 28549731#10 28549731#11 28549731#12" />
	</vehicle>
	<vehicle id="109" depart="14099.27" type="Car">
		 <route edges="-28549731#12 -28549731#11 -28549731#10 -28549731#9 -28549731#8 -28549731#7 -28549731#6 -28549731#4 -28549731#3 58207369#1 58207369#2" />
	</vehicle>
	<vehicle id="110" depart="14211.59" type="Car">
		 <route edges="-58207369#2 -58207369#1 28549731#3 28549731#4 28549731#6 28549731#7 28549731#8 28549731#9 28549731#10 28549731#11 28549731#12" />
	</vehicle>
	<vehicle id="111" depart="14223.18" type="Car">
		 <route edges="28549731#0 28549731#1 28549731#2 28549731#3 28549731#4 28549731#6 28549731#7 28549731#8 28549731#9 28549731#10 28549731#11 28549731#12" />
	</vehicle>
	<vehicle id="112" depart="14243.9" type="Car">
		 <route edges="28549731#0 28549731#1 28549731#2 28549731#3 28549731#4 28549731#6 28549731#7 28549731#8 28549731#9 345230672#0 345230672#1" />
	</vehicle>
	<vehicle id="113" depart="14634.29" type="Car">
		 <route edges="-58207369#2 -58207369#1 28549731#3 28549731#4 28549731#6 28549731#7 28549731#8 28549731#9 345230672#0 345230672#1" />
	</vehicle>
	<vehicle id="114" depart="14828.7" type="Truck">
		 <route edges="-345230672#1 -345230672#0 -28549731#9 -28549731#8 -28549731#7 -28549731#6 -28549731#4 -28549731#3 58207369#1 58207369#2" />
	</vehicle>
	<vehicle id="115" depart="14954.82" type="Car">
		 <route edges="28549731#0 28549731#1 28549731#2 28549731#3 28549731#4 28549731#6 28549731#7 28549731#8 28549731#9 345230672#0 345230672#1" />
	</vehicle>
	<vehicle id="116" depart="14990.94" type="Truck">
		 <route edges="-28549731#12 -28549731#11 -28549731#10 -28549731#9 -28549731#8 -28549731#7 -28549731#6 -28549731#4 -28549731#3 -28549731#2 -28549731#1 -28549731#0" />
	</vehicle>
	<vehicle id="117" depart="15021.58" type="Truck">
		 <route edges="-58207369#2 -58207369#1 28549731#3 28549731#4 28549731#6 28549731#7 28549731#8 28549731#9 28549731#10 28549731#11 28549731#12" />
	</vehicle>
	<vehicle id="118" depart="15091.55" type="Bus">
		 <route edges="-28549731#12 -28549731#11 -28549731#10 -28549731#9 -28549731#8 -28549731#7 -28549731#6 -28549731#4 -28549731#3 58207369#1 58207369#2" />
	</vehicle>
	<vehicle id="119" depart="15225.12" type="Car">
		 <route edges="28549731#0 28549731#1 28549731#2 28549731#3 28549731#4 28549731#6 28549731#7 28549731#8 28549731#9 345230672#0 345230672#1" />
	</vehicle>
	<vehicle id="120" depart="15226.94" type="Bus">
		 <route edges="-345230672#1 -345230672#0 -28549731#9 -28549731#8 -28549731#7 -28549731#6 -28549731#4 -28549731#3 58207369#1 58207369#2" />
	</vehicle>
	<vehicle id="121" depart="15361.92" type="Bus">
		 <route edges="28549731#0 28549731#1 28549731#2 28549731#3 28549731#4 28549731#6 28549731#7 28549731#8 28549731#9 345230672#0 345230672#1" />
	</vehicle>
	<vehicle id="122" depart="15394.81" type="Car">
		 <route edges="-28549731#12 -28549731#11 -28549731#10 -28549731#9 -28549731#8 -28549731#7 -28549731#6 -28549731#4 -28549731#3 -28549731#2 -28549731#1 -28549731#0" />
	</vehicle>
	<vehicle id="123" depart="15420.07" type="Car">
		 <route edges="28549731#0 28549731#1 28549731#2 28549731#3 28549731#4 28549731#6 28549731#7 28549731#8 28549731#9 28549731#10 28549731#11 28549731#12" />
	</vehicle>
	<vehicle id="124" depart="15513.59" type="Car">
		 <route edges="-345230672#1 -345230672#0 -28549731#9 -28549731#8 -28549731#7 -28549731#6 -28549731#4 -28549731#3 -28549731#2 -28549731#1 -28549731#0" />
	</vehicle>
	<vehicle id="125" depart="15514.99" type="Car">
		 <route edges="28549731#0 28549731#1 28549731#2 28549731#3 28549731#4 28549731#6 28549731#7 28549731#8 28549731#9 28549731#10 28549731#11 28549731#12" />
	</vehicle>
	<vehicle id="126" depart="15518.71" type="Truck">
		 <route edges="-345230672#1 -345230672#0 -28549731#9 -28549731#8 -28549731#7 -28549731#6 -28549731#4 -28549731#3 58207369#1 58207369#2" />
	</vehicle>
	<vehicle id="127" depart="15538.88" type="Truck">
		 <route edges="-58207369#2 -58207369#1 28549731#3 28549731#4 28549731#6 28549731#7 28549731#8 28549731#9 345230672#0 345230672#1" />
	</vehicle>
	<vehicle id="128" depart="15556.24" type="Car">
		 <route edges="-345230672#1 -345230672#0 -28549731#9 -28549731#8 -28549731#7 -28549731#6 -28549731#4 -28549731#3 58207369#1 58207369#2" />
	</vehicle>
	<vehicle id="129" depart="15573.96" type="electricCar">
		 <route edges="28549731#0 28549731#1 28549731#2 28549731#3 28549731#4 28549731#6 28549731#7 28549731#8 28549731#9 345230672#0 345230672#1" />
	</vehicle>
	<vehicle id="130" depart="15697.13" type="electricCar">
		 <route edges="-28549731#12 -28549731#11 -28549731#10 -28549731#9 -28549731#8 -28549731#7 -28549731#6 -28549731#4 -28549731#3 58207369#1 58207369#2" />
	</vehicle>
	<vehicle id="131" depart="15728.01" type="Car">
		 <route edges="28549731#0 28549731#1 28549731#2 28549731#3 28549731#4 28549731#6 28549731#7 28549731#8 28549731#9 345230672#0 345230672#1" />
	</vehicle>
	<vehicle id="132" depart="15791.45" type="Car">
		 <route edges="-345230672#1 -345230672#0 -28549731#9 -28549731#8 -28549731#7 -28549731#6 -28549731#4 -28549731#3 58207369#1 58207369#2" />
	</vehicle>
	<vehicle id="133" depart="15853.47" type="Car">
		 <route edges="28549731#0 28549731#1 28549731#2 28549731#3 28549731#4 28549731#6 28549731#7 28549731#8 28549731#9 345230672#0 345230672#1" />
	</vehicle>
	<vehicle id="134" depart="15863.31" type="electricCar">