<?xml version="1.0" encoding="UTF-8"?>

<additional>

    <!--  Generate emissions output -->
    <emissionOutput file="emission.xml"/>

</additional>